data/123Bus/Load123Bus.dss
New Load.1_1_1 Bus1=1.1 Phases=1 Conn=Wye Model=1 kV=2.402 kW=1.250 kvar=0.625 daily=MyShape1
New Load.1_1_2 Bus1=1.1 Phases=1 Conn=Wye Model=1 kV=2.402 kW=1.250 kvar=0.625 daily=MyShape2
New Load.1_1_3 Bus1=1.1 Phases=1 Conn=Wye Model=1 kV=2.402 kW=1.250 kvar=0.625 daily=MyShape3
New Load.1_1_4 Bus1=1.1 Phases=1 Conn=Wye Model=1 kV=2.402 kW=1.250 kvar=0.625 daily=MyShape4
New Load.1_1_5 Bus1=1.1 Phases=1 Conn=Wye Model=1 kV=2.402 kW=1.250 kvar=0.625 daily=MyShape5
New Load.1_1_6 Bus1=1.1 Phases=1 Conn=Wye Model=1 kV=2.402 kW=1.250 kvar=0.625 daily=MyShape6
New Load.1_1_7 Bus1=1.1 Phases=1 Conn=Wye Model=1 kV=2.402 kW=1.250 kvar=0.625 daily=MyShape7
New Load.1_1_8 Bus1=1.1 Phases=1 Conn=Wye Model=1 kV=2.402 kW=1.250 kvar=0.625 daily=MyShape8
New Load.1_1_9 Bus1=1.1 Phases=1 Conn=Wye Model=1 kV=2.402 kW=1.250 kvar=0.625 daily=MyShape9
New Load.1_1_10 Bus1=1.1 Phases=1 Conn=Wye Model=1 kV=2.402 kW=1.250 kvar=0.625 daily=MyShape10
New Load.1_1_11 Bus1=1.1 Phases=1 Conn=Wye Model=1 kV=2.402 kW=1.250 kvar=0.625 daily=MyShape11
New Load.1_1_12 Bus1=1.1 Phases=1 Conn=Wye Model=1 kV=2.402 kW=1.250 kvar=0.625 daily=MyShape12
New Load.1_1_13 Bus1=1.1 Phases=1 Conn=Wye Model=1 kV=2.402 kW=1.250 kvar=0.625 daily=MyShape13
New Load.1_1_14 Bus1=1.1 Phases=1 Conn=Wye Model=1 kV=2.402 kW=1.250 kvar=0.625 daily=MyShape14
New Load.1_1_15 Bus1=1.1 Phases=1 Conn=Wye Model=1 kV=2.402 kW=1.250 kvar=0.625 daily=MyShape15
New Load.1_1_16 Bus1=1.1 Phases=1 Conn=Wye Model=1 kV=2.402 kW=1.250 kvar=0.625 daily=MyShape16
New Load.1_1_17 Bus1=1.1 Phases=1 Conn=Wye Model=1 kV=2.402 kW=1.250 kvar=0.625 daily=MyShape17
New Load.1_1_18 Bus1=1.1 Phases=1 Conn=Wye Model=1 kV=2.402 kW=1.250 kvar=0.625 daily=MyShape18
New Load.1_1_19 Bus1=1.1 Phases=1 Conn=Wye Model=1 kV=2.402 kW=1.250 kvar=0.625 daily=MyShape19
New Load.1_1_20 Bus1=1.1 Phases=1 Conn=Wye Model=1 kV=2.402 kW=1.250 kvar=0.625 daily=MyShape20
New Load.1_1_21 Bus1=1.1 Phases=1 Conn=Wye Model=1 kV=2.402 kW=1.250 kvar=0.625 daily=MyShape21
New Load.1_1_22 Bus1=1.1 Phases=1 Conn=Wye Model=1 kV=2.402 kW=1.250 kvar=0.625 daily=MyShape22
New Load.1_1_23 Bus1=1.1 Phases=1 Conn=Wye Model=1 kV=2.402 kW=1.250 kvar=0.625 daily=MyShape23
New Load.1_1_24 Bus1=1.1 Phases=1 Conn=Wye Model=1 kV=2.402 kW=1.250 kvar=0.625 daily=MyShape24
New Load.1_1_25 Bus1=1.1 Phases=1 Conn=Wye Model=1 kV=2.402 kW=1.250 kvar=0.625 daily=MyShape25
New Load.1_1_26 Bus1=1.1 Phases=1 Conn=Wye Model=1 kV=2.402 kW=1.250 kvar=0.625 daily=MyShape26
New Load.1_1_27 Bus1=1.1 Phases=1 Conn=Wye Model=1 kV=2.402 kW=1.250 kvar=0.625 daily=MyShape27
New Load.1_1_28 Bus1=1.1 Phases=1 Conn=Wye Model=1 kV=2.402 kW=1.250 kvar=0.625 daily=MyShape28
New Load.1_1_29 Bus1=1.1 Phases=1 Conn=Wye Model=1 kV=2.402 kW=1.250 kvar=0.625 daily=MyShape29
New Load.1_1_30 Bus1=1.1 Phases=1 Conn=Wye Model=1 kV=2.402 kW=1.250 kvar=0.625 daily=MyShape30
New Load.1_1_31 Bus1=1.1 Phases=1 Conn=Wye Model=1 kV=2.402 kW=1.250 kvar=0.625 daily=MyShape31
New Load.1_1_32 Bus1=1.1 Phases=1 Conn=Wye Model=1 kV=2.402 kW=1.250 kvar=0.625 daily=MyShape32
New Load.2_2_1 Bus1=2.2 Phases=1 Conn=Wye Model=1 kV=2.402 kW=0.667 kvar=0.333 daily=MyShape33
New Load.2_2_2 Bus1=2.2 Phases=1 Conn=Wye Model=1 kV=2.402 kW=0.667 kvar=0.333 daily=MyShape34
New Load.2_2_3 Bus1=2.2 Phases=1 Conn=Wye Model=1 kV=2.402 kW=0.667 kvar=0.333 daily=MyShape35
New Load.2_2_4 Bus1=2.2 Phases=1 Conn=Wye Model=1 kV=2.402 kW=0.667 kvar=0.333 daily=MyShape36
New Load.2_2_5 Bus1=2.2 Phases=1 Conn=Wye Model=1 kV=2.402 kW=0.667 kvar=0.333 daily=MyShape37
New Load.2_2_6 Bus1=2.2 Phases=1 Conn=Wye Model=1 kV=2.402 kW=0.667 kvar=0.333 daily=MyShape38
New Load.2_2_7 Bus1=2.2 Phases=1 Conn=Wye Model=1 kV=2.402 kW=0.667 kvar=0.333 daily=MyShape39
New Load.2_2_8 Bus1=2.2 Phases=1 Conn=Wye Model=1 kV=2.402 kW=0.667 kvar=0.333 daily=MyShape40
New Load.2_2_9 Bus1=2.2 Phases=1 Conn=Wye Model=1 kV=2.402 kW=0.667 kvar=0.333 daily=MyShape41
New Load.2_2_10 Bus1=2.2 Phases=1 Conn=Wye Model=1 kV=2.402 kW=0.667 kvar=0.333 daily=MyShape42
New Load.2_2_11 Bus1=2.2 Phases=1 Conn=Wye Model=1 kV=2.402 kW=0.667 kvar=0.333 daily=MyShape43
New Load.2_2_12 Bus1=2.2 Phases=1 Conn=Wye Model=1 kV=2.402 kW=0.667 kvar=0.333 daily=MyShape44
New Load.2_2_13 Bus1=2.2 Phases=1 Conn=Wye Model=1 kV=2.402 kW=0.667 kvar=0.333 daily=MyShape45
New Load.2_2_14 Bus1=2.2 Phases=1 Conn=Wye Model=1 kV=2.402 kW=0.667 kvar=0.333 daily=MyShape46
New Load.2_2_15 Bus1=2.2 Phases=1 Conn=Wye Model=1 kV=2.402 kW=0.667 kvar=0.333 daily=MyShape47
New Load.2_2_16 Bus1=2.2 Phases=1 Conn=Wye Model=1 kV=2.402 kW=0.667 kvar=0.333 daily=MyShape48
New Load.2_2_17 Bus1=2.2 Phases=1 Conn=Wye Model=1 kV=2.402 kW=0.667 kvar=0.333 daily=MyShape49
New Load.2_2_18 Bus1=2.2 Phases=1 Conn=Wye Model=1 kV=2.402 kW=0.667 kvar=0.333 daily=MyShape50
New Load.2_2_19 Bus1=2.2 Phases=1 Conn=Wye Model=1 kV=2.402 kW=0.667 kvar=0.333 daily=MyShape51
New Load.2_2_20 Bus1=2.2 Phases=1 Conn=Wye Model=1 kV=2.402 kW=0.667 kvar=0.333 daily=MyShape52
New Load.2_2_21 Bus1=2.2 Phases=1 Conn=Wye Model=1 kV=2.402 kW=0.667 kvar=0.333 daily=MyShape53
New Load.2_2_22 Bus1=2.2 Phases=1 Conn=Wye Model=1 kV=2.402 kW=0.667 kvar=0.333 daily=MyShape54
New Load.2_2_23 Bus1=2.2 Phases=1 Conn=Wye Model=1 kV=2.402 kW=0.667 kvar=0.333 daily=MyShape55
New Load.2_2_24 Bus1=2.2 Phases=1 Conn=Wye Model=1 kV=2.402 kW=0.667 kvar=0.333 daily=MyShape56
New Load.2_2_25 Bus1=2.2 Phases=1 Conn=Wye Model=1 kV=2.402 kW=0.667 kvar=0.333 daily=MyShape57
New Load.2_2_26 Bus1=2.2 Phases=1 Conn=Wye Model=1 kV=2.402 kW=0.667 kvar=0.333 daily=MyShape58
New Load.2_2_27 Bus1=2.2 Phases=1 Conn=Wye Model=1 kV=2.402 kW=0.667 kvar=0.333 daily=MyShape59
New Load.2_2_28 Bus1=2.2 Phases=1 Conn=Wye Model=1 kV=2.402 kW=0.667 kvar=0.333 daily=MyShape60
New Load.2_2_29 Bus1=2.2 Phases=1 Conn=Wye Model=1 kV=2.402 kW=0.667 kvar=0.333 daily=MyShape61
New Load.2_2_30 Bus1=2.2 Phases=1 Conn=Wye Model=1 kV=2.402 kW=0.667 kvar=0.333 daily=MyShape62
New Load.4_3_1 Bus1=4.3 Phases=1 Conn=Wye Model=1 kV=2.402 kW=1.212 kvar=0.606 daily=MyShape63
New Load.4_3_2 Bus1=4.3 Phases=1 Conn=Wye Model=1 kV=2.402 kW=1.212 kvar=0.606 daily=MyShape64
New Load.4_3_3 Bus1=4.3 Phases=1 Conn=Wye Model=1 kV=2.402 kW=1.212 kvar=0.606 daily=MyShape65
New Load.4_3_4 Bus1=4.3 Phases=1 Conn=Wye Model=1 kV=2.402 kW=1.212 kvar=0.606 daily=MyShape66
New Load.4_3_5 Bus1=4.3 Phases=1 Conn=Wye Model=1 kV=2.402 kW=1.212 kvar=0.606 daily=MyShape67
New Load.4_3_6 Bus1=4.3 Phases=1 Conn=Wye Model=1 kV=2.402 kW=1.212 kvar=0.606 daily=MyShape68
New Load.4_3_7 Bus1=4.3 Phases=1 Conn=Wye Model=1 kV=2.402 kW=1.212 kvar=0.606 daily=MyShape69
New Load.4_3_8 Bus1=4.3 Phases=1 Conn=Wye Model=1 kV=2.402 kW=1.212 kvar=0.606 daily=MyShape70
New Load.4_3_9 Bus1=4.3 Phases=1 Conn=Wye Model=1 kV=2.402 kW=1.212 kvar=0.606 daily=MyShape71
New Load.4_3_10 Bus1=4.3 Phases=1 Conn=Wye Model=1 kV=2.402 kW=1.212 kvar=0.606 daily=MyShape72
New Load.4_3_11 Bus1=4.3 Phases=1 Conn=Wye Model=1 kV=2.402 kW=1.212 kvar=0.606 daily=MyShape73
New Load.4_3_12 Bus1=4.3 Phases=1 Conn=Wye Model=1 kV=2.402 kW=1.212 kvar=0.606 daily=MyShape74
New Load.4_3_13 Bus1=4.3 Phases=1 Conn=Wye Model=1 kV=2.402 kW=1.212 kvar=0.606 daily=MyShape75
New Load.4_3_14 Bus1=4.3 Phases=1 Conn=Wye Model=1 kV=2.402 kW=1.212 kvar=0.606 daily=MyShape76
New Load.4_3_15 Bus1=4.3 Phases=1 Conn=Wye Model=1 kV=2.402 kW=1.212 kvar=0.606 daily=MyShape77
New Load.4_3_16 Bus1=4.3 Phases=1 Conn=Wye Model=1 kV=2.402 kW=1.212 kvar=0.606 daily=MyShape78
New Load.4_3_17 Bus1=4.3 Phases=1 Conn=Wye Model=1 kV=2.402 kW=1.212 kvar=0.606 daily=MyShape79
New Load.4_3_18 Bus1=4.3 Phases=1 Conn=Wye Model=1 kV=2.402 kW=1.212 kvar=0.606 daily=MyShape80
New Load.4_3_19 Bus1=4.3 Phases=1 Conn=Wye Model=1 kV=2.402 kW=1.212 kvar=0.606 daily=MyShape81
New Load.4_3_20 Bus1=4.3 Phases=1 Conn=Wye Model=1 kV=2.402 kW=1.212 kvar=0.606 daily=MyShape82
New Load.4_3_21 Bus1=4.3 Phases=1 Conn=Wye Model=1 kV=2.402 kW=1.212 kvar=0.606 daily=MyShape83
New Load.4_3_22 Bus1=4.3 Phases=1 Conn=Wye Model=1 kV=2.402 kW=1.212 kvar=0.606 daily=MyShape84
New Load.4_3_23 Bus1=4.3 Phases=1 Conn=Wye Model=1 kV=2.402 kW=1.212 kvar=0.606 daily=MyShape85
New Load.4_3_24 Bus1=4.3 Phases=1 Conn=Wye Model=1 kV=2.402 kW=1.212 kvar=0.606 daily=MyShape86
New Load.4_3_25 Bus1=4.3 Phases=1 Conn=Wye Model=1 kV=2.402 kW=1.212 kvar=0.606 daily=MyShape87
New Load.4_3_26 Bus1=4.3 Phases=1 Conn=Wye Model=1 kV=2.402 kW=1.212 kvar=0.606 daily=MyShape88
New Load.4_3_27 Bus1=4.3 Phases=1 Conn=Wye Model=1 kV=2.402 kW=1.212 kvar=0.606 daily=MyShape89
New Load.4_3_28 Bus1=4.3 Phases=1 Conn=Wye Model=1 kV=2.402 kW=1.212 kvar=0.606 daily=MyShape90
New Load.4_3_29 Bus1=4.3 Phases=1 Conn=Wye Model=1 kV=2.402 kW=1.212 kvar=0.606 daily=MyShape1
New Load.4_3_30 Bus1=4.3 Phases=1 Conn=Wye Model=1 kV=2.402 kW=1.212 kvar=0.606 daily=MyShape2
New Load.4_3_31 Bus1=4.3 Phases=1 Conn=Wye Model=1 kV=2.402 kW=1.212 kvar=0.606 daily=MyShape3
New Load.4_3_32 Bus1=4.3 Phases=1 Conn=Wye Model=1 kV=2.402 kW=1.212 kvar=0.606 daily=MyShape4
New Load.4_3_33 Bus1=4.3 Phases=1 Conn=Wye Model=1 kV=2.402 kW=1.212 kvar=0.606 daily=MyShape5
New Load.5_3_1 Bus1=5.3 Phases=1 Conn=Wye Model=1 kV=2.402 kW=0.606 kvar=0.303 daily=MyShape6
New Load.5_3_2 Bus1=5.3 Phases=1 Conn=Wye Model=1 kV=2.402 kW=0.606 kvar=0.303 daily=MyShape7
New Load.5_3_3 Bus1=5.3 Phases=1 Conn=Wye Model=1 kV=2.402 kW=0.606 kvar=0.303 daily=MyShape8
New Load.5_3_4 Bus1=5.3 Phases=1 Conn=Wye Model=1 kV=2.402 kW=0.606 kvar=0.303 daily=MyShape9
New Load.5_3_5 Bus1=5.3 Phases=1 Conn=Wye Model=1 kV=2.402 kW=0.606 kvar=0.303 daily=MyShape10
New Load.5_3_6 Bus1=5.3 Phases=1 Conn=Wye Model=1 kV=2.402 kW=0.606 kvar=0.303 daily=MyShape11
New Load.5_3_7 Bus1=5.3 Phases=1 Conn=Wye Model=1 kV=2.402 kW=0.606 kvar=0.303 daily=MyShape12
New Load.5_3_8 Bus1=5.3 Phases=1 Conn=Wye Model=1 kV=2.402 kW=0.606 kvar=0.303 daily=MyShape13
New Load.5_3_9 Bus1=5.3 Phases=1 Conn=Wye Model=1 kV=2.402 kW=0.606 kvar=0.303 daily=MyShape14
New Load.5_3_10 Bus1=5.3 Phases=1 Conn=Wye Model=1 kV=2.402 kW=0.606 kvar=0.303 daily=MyShape15
New Load.5_3_11 Bus1=5.3 Phases=1 Conn=Wye Model=1 kV=2.402 kW=0.606 kvar=0.303 daily=MyShape16
New Load.5_3_12 Bus1=5.3 Phases=1 Conn=Wye Model=1 kV=2.402 kW=0.606 kvar=0.303 daily=MyShape17
New Load.5_3_13 Bus1=5.3 Phases=1 Conn=Wye Model=1 kV=2.402 kW=0.606 kvar=0.303 daily=MyShape18
New Load.5_3_14 Bus1=5.3 Phases=1 Conn=Wye Model=1 kV=2.402 kW=0.606 kvar=0.303 daily=MyShape19
New Load.5_3_15 Bus1=5.3 Phases=1 Conn=Wye Model=1 kV=2.402 kW=0.606 kvar=0.303 daily=MyShape20
New Load.5_3_16 Bus1=5.3 Phases=1 Conn=Wye Model=1 kV=2.402 kW=0.606 kvar=0.303 daily=MyShape21
New Load.5_3_17 Bus1=5.3 Phases=1 Conn=Wye Model=1 kV=2.402 kW=0.606 kvar=0.303 daily=MyShape22
New Load.5_3_18 Bus1=5.3 Phases=1 Conn=Wye Model=1 kV=2.402 kW=0.606 kvar=0.303 daily=MyShape23
New Load.5_3_19 Bus1=5.3 Phases=1 Conn=Wye Model=1 kV=2.402 kW=0.606 kvar=0.303 daily=MyShape24
New Load.5_3_20 Bus1=5.3 Phases=1 Conn=Wye Model=1 kV=2.402 kW=0.606 kvar=0.303 daily=MyShape25
New Load.5_3_21 Bus1=5.3 Phases=1 Conn=Wye Model=1 kV=2.402 kW=0.606 kvar=0.303 daily=MyShape26
New Load.5_3_22 Bus1=5.3 Phases=1 Conn=Wye Model=1 kV=2.402 kW=0.606 kvar=0.303 daily=MyShape27
New Load.5_3_23 Bus1=5.3 Phases=1 Conn=Wye Model=1 kV=2.402 kW=0.606 kvar=0.303 daily=MyShape28
New Load.5_3_24 Bus1=5.3 Phases=1 Conn=Wye Model=1 kV=2.402 kW=0.606 kvar=0.303 daily=MyShape29
New Load.5_3_25 Bus1=5.3 Phases=1 Conn=Wye Model=1 kV=2.402 kW=0.606 kvar=0.303 daily=MyShape30
New Load.5_3_26 Bus1=5.3 Phases=1 Conn=Wye Model=1 kV=2.402 kW=0.606 kvar=0.303 daily=MyShape31
New Load.5_3_27 Bus1=5.3 Phases=1 Conn=Wye Model=1 kV=2.402 kW=0.606 kvar=0.303 daily=MyShape32
New Load.5_3_28 Bus1=5.3 Phases=1 Conn=Wye Model=1 kV=2.402 kW=0.606 kvar=0.303 daily=MyShape33
New Load.5_3_29 Bus1=5.3 Phases=1 Conn=Wye Model=1 kV=2.402 kW=0.606 kvar=0.303 daily=MyShape34
New Load.5_3_30 Bus1=5.3 Phases=1 Conn=Wye Model=1 kV=2.402 kW=0.606 kvar=0.303 daily=MyShape35
New Load.5_3_31 Bus1=5.3 Phases=1 Conn=Wye Model=1 kV=2.402 kW=0.606 kvar=0.303 daily=MyShape36
New Load.5_3_32 Bus1=5.3 Phases=1 Conn=Wye Model=1 kV=2.402 kW=0.606 kvar=0.303 daily=MyShape37
New Load.5_3_33 Bus1=5.3 Phases=1 Conn=Wye Model=1 kV=2.402 kW=0.606 kvar=0.303 daily=MyShape38
New Load.6_3_1 Bus1=6.3 Phases=1 Conn=Wye Model=1 kV=2.402 kW=1.026 kvar=0.513 daily=MyShape39
New Load.6_3_2 Bus1=6.3 Phases=1 Conn=Wye Model=1 kV=2.402 kW=1.026 kvar=0.513 daily=MyShape40
New Load.6_3_3 Bus1=6.3 Phases=1 Conn=Wye Model=1 kV=2.402 kW=1.026 kvar=0.513 daily=MyShape41
New Load.6_3_4 Bus1=6.3 Phases=1 Conn=Wye Model=1 kV=2.402 kW=1.026 kvar=0.513 daily=MyShape42
New Load.6_3_5 Bus1=6.3 Phases=1 Conn=Wye Model=1 kV=2.402 kW=1.026 kvar=0.513 daily=MyShape43
New Load.6_3_6 Bus1=6.3 Phases=1 Conn=Wye Model=1 kV=2.402 kW=1.026 kvar=0.513 daily=MyShape44
New Load.6_3_7 Bus1=6.3 Phases=1 Conn=Wye Model=1 kV=2.402 kW=1.026 kvar=0.513 daily=MyShape45
New Load.6_3_8 Bus1=6.3 Phases=1 Conn=Wye Model=1 kV=2.402 kW=1.026 kvar=0.513 daily=MyShape46
New Load.6_3_9 Bus1=6.3 Phases=1 Conn=Wye Model=1 kV=2.402 kW=1.026 kvar=0.513 daily=MyShape47
New Load.6_3_10 Bus1=6.3 Phases=1 Conn=Wye Model=1 kV=2.402 kW=1.026 kvar=0.513 daily=MyShape48
New Load.6_3_11 Bus1=6.3 Phases=1 Conn=Wye Model=1 kV=2.402 kW=1.026 kvar=0.513 daily=MyShape49
New Load.6_3_12 Bus1=6.3 Phases=1 Conn=Wye Model=1 kV=2.402 kW=1.026 kvar=0.513 daily=MyShape50
New Load.6_3_13 Bus1=6.3 Phases=1 Conn=Wye Model=1 kV=2.402 kW=1.026 kvar=0.513 daily=MyShape51
New Load.6_3_14 Bus1=6.3 Phases=1 Conn=Wye Model=1 kV=2.402 kW=1.026 kvar=0.513 daily=MyShape52
New Load.6_3_15 Bus1=6.3 Phases=1 Conn=Wye Model=1 kV=2.402 kW=1.026 kvar=0.513 daily=MyShape53
New Load.6_3_16 Bus1=6.3 Phases=1 Conn=Wye Model=1 kV=2.402 kW=1.026 kvar=0.513 daily=MyShape54
New Load.6_3_17 Bus1=6.3 Phases=1 Conn=Wye Model=1 kV=2.402 kW=1.026 kvar=0.513 daily=MyShape55
New Load.6_3_18 Bus1=6.3 Phases=1 Conn=Wye Model=1 kV=2.402 kW=1.026 kvar=0.513 daily=MyShape56
New Load.6_3_19 Bus1=6.3 Phases=1 Conn=Wye Model=1 kV=2.402 kW=1.026 kvar=0.513 daily=MyShape57
New Load.6_3_20 Bus1=6.3 Phases=1 Conn=Wye Model=1 kV=2.402 kW=1.026 kvar=0.513 daily=MyShape58
New Load.6_3_21 Bus1=6.3 Phases=1 Conn=Wye Model=1 kV=2.402 kW=1.026 kvar=0.513 daily=MyShape59
New Load.6_3_22 Bus1=6.3 Phases=1 Conn=Wye Model=1 kV=2.402 kW=1.026 kvar=0.513 daily=MyShape60
New Load.6_3_23 Bus1=6.3 Phases=1 Conn=Wye Model=1 kV=2.402 kW=1.026 kvar=0.513 daily=MyShape61
New Load.6_3_24 Bus1=6.3 Phases=1 Conn=Wye Model=1 kV=2.402 kW=1.026 kvar=0.513 daily=MyShape62
New Load.6_3_25 Bus1=6.3 Phases=1 Conn=Wye Model=1 kV=2.402 kW=1.026 kvar=0.513 daily=MyShape63
New Load.6_3_26 Bus1=6.3 Phases=1 Conn=Wye Model=1 kV=2.402 kW=1.026 kvar=0.513 daily=MyShape64
New Load.6_3_27 Bus1=6.3 Phases=1 Conn=Wye Model=1 kV=2.402 kW=1.026 kvar=0.513 daily=MyShape65
New Load.6_3_28 Bus1=6.3 Phases=1 Conn=Wye Model=1 kV=2.402 kW=1.026 kvar=0.513 daily=MyShape66
New Load.6_3_29 Bus1=6.3 Phases=1 Conn=Wye Model=1 kV=2.402 kW=1.026 kvar=0.513 daily=MyShape67
New Load.6_3_30 Bus1=6.3 Phases=1 Conn=Wye Model=1 kV=2.402 kW=1.026 kvar=0.513 daily=MyShape68
New Load.6_3_31 Bus1=6.3 Phases=1 Conn=Wye Model=1 kV=2.402 kW=1.026 kvar=0.513 daily=MyShape69
New Load.6_3_32 Bus1=6.3 Phases=1 Conn=Wye Model=1 kV=2.402 kW=1.026 kvar=0.513 daily=MyShape70
New Load.6_3_33 Bus1=6.3 Phases=1 Conn=Wye Model=1 kV=2.402 kW=1.026 kvar=0.513 daily=MyShape71
New Load.6_3_34 Bus1=6.3 Phases=1 Conn=Wye Model=1 kV=2.402 kW=1.026 kvar=0.513 daily=MyShape72
New Load.6_3_35 Bus1=6.3 Phases=1 Conn=Wye Model=1 kV=2.402 kW=1.026 kvar=0.513 daily=MyShape73
New Load.6_3_36 Bus1=6.3 Phases=1 Conn=Wye Model=1 kV=2.402 kW=1.026 kvar=0.513 daily=MyShape74
New Load.6_3_37 Bus1=6.3 Phases=1 Conn=Wye Model=1 kV=2.402 kW=1.026 kvar=0.513 daily=MyShape75
New Load.6_3_38 Bus1=6.3 Phases=1 Conn=Wye Model=1 kV=2.402 kW=1.026 kvar=0.513 daily=MyShape76
New Load.6_3_39 Bus1=6.3 Phases=1 Conn=Wye Model=1 kV=2.402 kW=1.026 kvar=0.513 daily=MyShape77
New Load.7_1_1 Bus1=7.1 Phases=1 Conn=Wye Model=1 kV=2.402 kW=0.513 kvar=0.256 daily=MyShape78
New Load.7_1_2 Bus1=7.1 Phases=1 Conn=Wye Model=1 kV=2.402 kW=0.513 kvar=0.256 daily=MyShape79
New Load.7_1_3 Bus1=7.1 Phases=1 Conn=Wye Model=1 kV=2.402 kW=0.513 kvar=0.256 daily=MyShape80
New Load.7_1_4 Bus1=7.1 Phases=1 Conn=Wye Model=1 kV=2.402 kW=0.513 kvar=0.256 daily=MyShape81
New Load.7_1_5 Bus1=7.1 Phases=1 Conn=Wye Model=1 kV=2.402 kW=0.513 kvar=0.256 daily=MyShape82
New Load.7_1_6 Bus1=7.1 Phases=1 Conn=Wye Model=1 kV=2.402 kW=0.513 kvar=0.256 daily=MyShape83
New Load.7_1_7 Bus1=7.1 Phases=1 Conn=Wye Model=1 kV=2.402 kW=0.513 kvar=0.256 daily=MyShape84
New Load.7_1_8 Bus1=7.1 Phases=1 Conn=Wye Model=1 kV=2.402 kW=0.513 kvar=0.256 daily=MyShape85
New Load.7_1_9 Bus1=7.1 Phases=1 Conn=Wye Model=1 kV=2.402 kW=0.513 kvar=0.256 daily=MyShape86
New Load.7_1_10 Bus1=7.1 Phases=1 Conn=Wye Model=1 kV=2.402 kW=0.513 kvar=0.256 daily=MyShape87
New Load.7_1_11 Bus1=7.1 Phases=1 Conn=Wye Model=1 kV=2.402 kW=0.513 kvar=0.256 daily=MyShape88
New Load.7_1_12 Bus1=7.1 Phases=1 Conn=Wye Model=1 kV=2.402 kW=0.513 kvar=0.256 daily=MyShape89
New Load.7_1_13 Bus1=7.1 Phases=1 Conn=Wye Model=1 kV=2.402 kW=0.513 kvar=0.256 daily=MyShape90
New Load.7_1_14 Bus1=7.1 Phases=1 Conn=Wye Model=1 kV=2.402 kW=0.513 kvar=0.256 daily=MyShape1
New Load.7_1_15 Bus1=7.1 Phases=1 Conn=Wye Model=1 kV=2.402 kW=0.513 kvar=0.256 daily=MyShape2
New Load.7_1_16 Bus1=7.1 Phases=1 Conn=Wye Model=1 kV=2.402 kW=0.513 kvar=0.256 daily=MyShape3
New Load.7_1_17 Bus1=7.1 Phases=1 Conn=Wye Model=1 kV=2.402 kW=0.513 kvar=0.256 daily=MyShape4
New Load.7_1_18 Bus1=7.1 Phases=1 Conn=Wye Model=1 kV=2.402 kW=0.513 kvar=0.256 daily=MyShape5
New Load.7_1_19 Bus1=7.1 Phases=1 Conn=Wye Model=1 kV=2.402 kW=0.513 kvar=0.256 daily=MyShape6
New Load.7_1_20 Bus1=7.1 Phases=1 Conn=Wye Model=1 kV=2.402 kW=0.513 kvar=0.256 daily=MyShape7
New Load.7_1_21 Bus1=7.1 Phases=1 Conn=Wye Model=1 kV=2.402 kW=0.513 kvar=0.256 daily=MyShape8
New Load.7_1_22 Bus1=7.1 Phases=1 Conn=Wye Model=1 kV=2.402 kW=0.513 kvar=0.256 daily=MyShape9
New Load.7_1_23 Bus1=7.1 Phases=1 Conn=Wye Model=1 kV=2.402 kW=0.513 kvar=0.256 daily=MyShape10
New Load.7_1_24 Bus1=7.1 Phases=1 Conn=Wye Model=1 kV=2.402 kW=0.513 kvar=0.256 daily=MyShape11
New Load.7_1_25 Bus1=7.1 Phases=1 Conn=Wye Model=1 kV=2.402 kW=0.513 kvar=0.256 daily=MyShape12
New Load.7_1_26 Bus1=7.1 Phases=1 Conn=Wye Model=1 kV=2.402 kW=0.513 kvar=0.256 daily=MyShape13
New Load.7_1_27 Bus1=7.1 Phases=1 Conn=Wye Model=1 kV=2.402 kW=0.513 kvar=0.256 daily=MyShape14
New Load.7_1_28 Bus1=7.1 Phases=1 Conn=Wye Model=1 kV=2.402 kW=0.513 kvar=0.256 daily=MyShape15
New Load.7_1_29 Bus1=7.1 Phases=1 Conn=Wye Model=1 kV=2.402 kW=0.513 kvar=0.256 daily=MyShape16
New Load.7_1_30 Bus1=7.1 Phases=1 Conn=Wye Model=1 kV=2.402 kW=0.513 kvar=0.256 daily=MyShape17
New Load.7_1_31 Bus1=7.1 Phases=1 Conn=Wye Model=1 kV=2.402 kW=0.513 kvar=0.256 daily=MyShape18
New Load.7_1_32 Bus1=7.1 Phases=1 Conn=Wye Model=1 kV=2.402 kW=0.513 kvar=0.256 daily=MyShape19
New Load.7_1_33 Bus1=7.1 Phases=1 Conn=Wye Model=1 kV=2.402 kW=0.513 kvar=0.256 daily=MyShape20
...
