data/123Bus/PVSystem123Bus.dss
New PVSystem.PV_1_1_1 phases=1 bus1=1.1 kV=2.402 kVA=1.875 irrad=0.8 Pmpp=1.875
~ temperature=25 PF=1 effcurve=Myeff P-TCurve=MyPvsT
~ Daily=MyShapePV1 TDaily=MyTemp

New PVSystem.PV_1_1_2 phases=1 bus1=1.1 kV=2.402 kVA=1.875 irrad=0.8 Pmpp=1.875
~ temperature=25 PF=1 effcurve=Myeff P-TCurve=MyPvsT
~ Daily=MyShapePV2 TDaily=MyTemp

New PVSystem.PV_1_1_3 phases=1 bus1=1.1 kV=2.402 kVA=1.875 irrad=0.8 Pmpp=1.875
~ temperature=25 PF=1 effcurve=Myeff P-TCurve=MyPvsT
~ Daily=MyShapePV3 TDaily=MyTemp

New PVSystem.PV_1_1_4 phases=1 bus1=1.1 kV=2.402 kVA=1.875 irrad=0.8 Pmpp=1.875
~ temperature=25 PF=1 effcurve=Myeff P-TCurve=MyPvsT
~ Daily=MyShapePV4 TDaily=MyTemp

New PVSystem.PV_1_1_5 phases=1 bus1=1.1 kV=2.402 kVA=1.875 irrad=0.8 Pmpp=1.875
~ temperature=25 PF=1 effcurve=Myeff P-TCurve=MyPvsT
~ Daily=MyShapePV5 TDaily=MyTemp

New PVSystem.PV_1_1_6 phases=1 bus1=1.1 kV=2.402 kVA=1.875 irrad=0.8 Pmpp=1.875
~ temperature=25 PF=1 effcurve=Myeff P-TCurve=MyPvsT
~ Daily=MyShapePV6 TDaily=MyTemp

New PVSystem.PV_1_1_7 phases=1 bus1=1.1 kV=2.402 kVA=1.875 irrad=0.8 Pmpp=1.875
~ temperature=25 PF=1 effcurve=Myeff P-TCurve=MyPvsT
~ Daily=MyShapePV7 TDaily=MyTemp

New PVSystem.PV_1_1_8 phases=1 bus1=1.1 kV=2.402 kVA=1.875 irrad=0.8 Pmpp=1.875
~ temperature=25 PF=1 effcurve=Myeff P-TCurve=MyPvsT
~ Daily=MyShapePV8 TDaily=MyTemp

New PVSystem.PV_1_1_9 phases=1 bus1=1.1 kV=2.402 kVA=1.875 irrad=0.8 Pmpp=1.875
~ temperature=25 PF=1 effcurve=Myeff P-TCurve=MyPvsT
~ Daily=MyShapePV9 TDaily=MyTemp

New PVSystem.PV_1_1_10 phases=1 bus1=1.1 kV=2.402 kVA=1.875 irrad=0.8 Pmpp=1.875
~ temperature=25 PF=1 effcurve=Myeff P-TCurve=MyPvsT
~ Daily=MyShapePV10 TDaily=MyTemp

New PVSystem.PV_1_1_11 phases=1 bus1=1.1 kV=2.402 kVA=1.875 irrad=0.8 Pmpp=1.875
~ temperature=25 PF=1 effcurve=Myeff P-TCurve=MyPvsT
~ Daily=MyShapePV11 TDaily=MyTemp

New PVSystem.PV_1_1_12 phases=1 bus1=1.1 kV=2.402 kVA=1.875 irrad=0.8 Pmpp=1.875
~ temperature=25 PF=1 effcurve=Myeff P-TCurve=MyPvsT
~ Daily=MyShapePV12 TDaily=MyTemp

New PVSystem.PV_1_1_13 phases=1 bus1=1.1 kV=2.402 kVA=1.875 irrad=0.8 Pmpp=1.875
~ temperature=25 PF=1 effcurve=Myeff P-TCurve=MyPvsT
~ Daily=MyShapePV13 TDaily=MyTemp

New PVSystem.PV_1_1_14 phases=1 bus1=1.1 kV=2.402 kVA=1.875 irrad=0.8 Pmpp=1.875
~ temperature=25 PF=1 effcurve=Myeff P-TCurve=MyPvsT
~ Daily=MyShapePV14 TDaily=MyTemp

New PVSystem.PV_1_1_15 phases=1 bus1=1.1 kV=2.402 kVA=1.875 irrad=0.8 Pmpp=1.875
~ temperature=25 PF=1 effcurve=Myeff P-TCurve=MyPvsT
~ Daily=MyShapePV15 TDaily=MyTemp

New PVSystem.PV_1_1_16 phases=1 bus1=1.1 kV=2.402 kVA=1.875 irrad=0.8 Pmpp=1.875
~ temperature=25 PF=1 effcurve=Myeff P-TCurve=MyPvsT
~ Daily=MyShapePV16 TDaily=MyTemp

New PVSystem.PV_1_1_17 phases=1 bus1=1.1 kV=2.402 kVA=1.875 irrad=0.8 Pmpp=1.875
~ temperature=25 PF=1 effcurve=Myeff P-TCurve=MyPvsT
~ Daily=MyShapePV17 TDaily=MyTemp

New PVSystem.PV_1_1_18 phases=1 bus1=1.1 kV=2.402 kVA=1.875 irrad=0.8 Pmpp=1.875
~ temperature=25 PF=1 effcurve=Myeff P-TCurve=MyPvsT
~ Daily=MyShapePV18 TDaily=MyTemp

New PVSystem.PV_1_1_19 phases=1 bus1=1.1 kV=2.402 kVA=1.875 irrad=0.8 Pmpp=1.875
~ temperature=25 PF=1 effcurve=Myeff P-TCurve=MyPvsT
~ Daily=MyShapePV19 TDaily=MyTemp

New PVSystem.PV_1_1_20 phases=1 bus1=1.1 kV=2.402 kVA=1.875 irrad=0.8 Pmpp=1.875
~ temperature=25 PF=1 effcurve=Myeff P-TCurve=MyPvsT
~ Daily=MyShapePV20 TDaily=MyTemp

New PVSystem.PV_1_1_21 phases=1 bus1=1.1 kV=2.402 kVA=1.875 irrad=0.8 Pmpp=1.875
~ temperature=25 PF=1 effcurve=Myeff P-TCurve=MyPvsT
~ Daily=MyShapePV21 TDaily=MyTemp

New PVSystem.PV_1_1_22 phases=1 bus1=1.1 kV=2.402 kVA=1.875 irrad=0.8 Pmpp=1.875
~ temperature=25 PF=1 effcurve=Myeff P-TCurve=MyPvsT
~ Daily=MyShapePV22 TDaily=MyTemp

New PVSystem.PV_1_1_23 phases=1 bus1=1.1 kV=2.402 kVA=1.875 irrad=0.8 Pmpp=1.875
~ temperature=25 PF=1 effcurve=Myeff P-TCurve=MyPvsT
~ Daily=MyShapePV23 TDaily=MyTemp

New PVSystem.PV_1_1_24 phases=1 bus1=1.1 kV=2.402 kVA=1.875 irrad=0.8 Pmpp=1.875
~ temperature=25 PF=1 effcurve=Myeff P-TCurve=MyPvsT
~ Daily=MyShapePV24 TDaily=MyTemp

New PVSystem.PV_1_1_25 phases=1 bus1=1.1 kV=2.402 kVA=1.875 irrad=0.8 Pmpp=1.875
~ temperature=25 PF=1 effcurve=Myeff P-TCurve=MyPvsT
~ Daily=MyShapePV25 TDaily=MyTemp

New PVSystem.PV_1_1_26 phases=1 bus1=1.1 kV=2.402 kVA=1.875 irrad=0.8 Pmpp=1.875
~ temperature=25 PF=1 effcurve=Myeff P-TCurve=MyPvsT
~ Daily=MyShapePV26 TDaily=MyTemp

New PVSystem.PV_1_1_27 phases=1 bus1=1.1 kV=2.402 kVA=1.875 irrad=0.8 Pmpp=1.875
~ temperature=25 PF=1 effcurve=Myeff P-TCurve=MyPvsT
~ Daily=MyShapePV27 TDaily=MyTemp

New PVSystem.PV_1_1_28 phases=1 bus1=1.1 kV=2.402 kVA=1.875 irrad=0.8 Pmpp=1.875
~ temperature=25 PF=1 effcurve=Myeff P-TCurve=MyPvsT
~ Daily=MyShapePV28 TDaily=MyTemp

New PVSystem.PV_1_1_29 phases=1 bus1=1.1 kV=2.402 kVA=1.875 irrad=0.8 Pmpp=1.875
~ temperature=25 PF=1 effcurve=Myeff P-TCurve=MyPvsT
~ Daily=MyShapePV29 TDaily=MyTemp

New PVSystem.PV_1_1_30 phases=1 bus1=1.1 kV=2.402 kVA=1.875 irrad=0.8 Pmpp=1.875
~ temperature=25 PF=1 effcurve=Myeff P-TCurve=MyPvsT
~ Daily=MyShapePV30 TDaily=MyTemp

New PVSystem.PV_1_1_31 phases=1 bus1=1.1 kV=2.402 kVA=1.875 irrad=0.8 Pmpp=1.875
~ temperature=25 PF=1 effcurve=Myeff P-TCurve=MyPvsT
~ Daily=MyShapePV31 TDaily=MyTemp

New PVSystem.PV_1_1_32 phases=1 bus1=1.1 kV=2.402 kVA=1.875 irrad=0.8 Pmpp=1.875
~ temperature=25 PF=1 effcurve=Myeff P-TCurve=MyPvsT
~ Daily=MyShapePV32 TDaily=MyTemp

New PVSystem.PV_2_2_1 phases=1 bus1=2.2 kV=2.402 kVA=1.001 irrad=0.8 Pmpp=1.001
~ temperature=25 PF=1 effcurve=Myeff P-TCurve=MyPvsT
~ Daily=MyShapePV33 TDaily=MyTemp

New PVSystem.PV_2_2_2 phases=1 bus1=2.2 kV=2.402 kVA=1.001 irrad=0.8 Pmpp=1.001
~ temperature=25 PF=1 effcurve=Myeff P-TCurve=MyPvsT
~ Daily=MyShapePV34 TDaily=MyTemp

New PVSystem.PV_2_2_3 phases=1 bus1=2.2 kV=2.402 kVA=1.001 irrad=0.8 Pmpp=1.001
~ temperature=25 PF=1 effcurve=Myeff P-TCurve=MyPvsT
~ Daily=MyShapePV35 TDaily=MyTemp

New PVSystem.PV_2_2_4 phases=1 bus1=2.2 kV=2.402 kVA=1.001 irrad=0.8 Pmpp=1.001
~ temperature=25 PF=1 effcurve=Myeff P-TCurve=MyPvsT
~ Daily=MyShapePV36 TDaily=MyTemp

New PVSystem.PV_2_2_5 phases=1 bus1=2.2 kV=2.402 kVA=1.001 irrad=0.8 Pmpp=1.001
~ temperature=25 PF=1 effcurve=Myeff P-TCurve=MyPvsT
~ Daily=MyShapePV37 TDaily=MyTemp

New PVSystem.PV_2_2_6 phases=1 bus1=2.2 kV=2.402 kVA=1.001 irrad=0.8 Pmpp=1.001
~ temperature=25 PF=1 effcurve=Myeff P-TCurve=MyPvsT
~ Daily=MyShapePV38 TDaily=MyTemp

New PVSystem.PV_2_2_7 phases=1 bus1=2.2 kV=2.402 kVA=1.001 irrad=0.8 Pmpp=1.001
~ temperature=25 PF=1 effcurve=Myeff P-TCurve=MyPvsT
~ Daily=MyShapePV39 TDaily=MyTemp

New PVSystem.PV_2_2_8 phases=1 bus1=2.2 kV=2.402 kVA=1.001 irrad=0.8 Pmpp=1.001
~ temperature=25 PF=1 effcurve=Myeff P-TCurve=MyPvsT
~ Daily=MyShapePV40 TDaily=MyTemp

New PVSystem.PV_2_2_9 phases=1 bus1=2.2 kV=2.402 kVA=1.001 irrad=0.8 Pmpp=1.001
~ temperature=25 PF=1 effcurve=Myeff P-TCurve=MyPvsT
~ Daily=MyShapePV41 TDaily=MyTemp

New PVSystem.PV_2_2_10 phases=1 bus1=2.2 kV=2.402 kVA=1.001 irrad=0.8 Pmpp=1.001
~ temperature=25 PF=1 effcurve=Myeff P-TCurve=MyPvsT
~ Daily=MyShapePV42 TDaily=MyTemp

New PVSystem.PV_2_2_11 phases=1 bus1=2.2 kV=2.402 kVA=1.001 irrad=0.8 Pmpp=1.001
~ temperature=25 PF=1 effcurve=Myeff P-TCurve=MyPvsT
~ Daily=MyShapePV43 TDaily=MyTemp

New PVSystem.PV_2_2_12 phases=1 bus1=2.2 kV=2.402 kVA=1.001 irrad=0.8 Pmpp=1.001
~ temperature=25 PF=1 effcurve=Myeff P-TCurve=MyPvsT
~ Daily=MyShapePV44 TDaily=MyTemp

New PVSystem.PV_2_2_13 phases=1 bus1=2.2 kV=2.402 kVA=1.001 irrad=0.8 Pmpp=1.001
~ temperature=25 PF=1 effcurve=Myeff P-TCurve=MyPvsT
~ Daily=MyShapePV45 TDaily=MyTemp

New PVSystem.PV_2_2_14 phases=1 bus1=2.2 kV=2.402 kVA=1.001 irrad=0.8 Pmpp=1.001
~ temperature=25 PF=1 effcurve=Myeff P-TCurve=MyPvsT
~ Daily=MyShapePV46 TDaily=MyTemp

New PVSystem.PV_2_2_15 phases=1 bus1=2.2 kV=2.402 kVA=1.001 irrad=0.8 Pmpp=1.001
~ temperature=25 PF=1 effcurve=Myeff P-TCurve=MyPvsT
~ Daily=MyShapePV47 TDaily=MyTemp

New PVSystem.PV_2_2_16 phases=1 bus1=2.2 kV=2.402 kVA=1.001 irrad=0.8 Pmpp=1.001
~ temperature=25 PF=1 effcurve=Myeff P-TCurve=MyPvsT
~ Daily=MyShapePV48 TDaily=MyTemp

New PVSystem.PV_2_2_17 phases=1 bus1=2.2 kV=2.402 kVA=1.001 irrad=0.8 Pmpp=1.001
~ temperature=25 PF=1 effcurve=Myeff P-TCurve=MyPvsT
~ Daily=MyShapePV49 TDaily=MyTemp

New PVSystem.PV_2_2_18 phases=1 bus1=2.2 kV=2.402 kVA=1.001 irrad=0.8 Pmpp=1.001
~ temperature=25 PF=1 effcurve=Myeff P-TCurve=MyPvsT
~ Daily=MyShapePV50 TDaily=MyTemp

New PVSystem.PV_2_2_19 phases=1 bus1=2.2 kV=2.402 kVA=1.001 irrad=0.8 Pmpp=1.001
~ temperature=25 PF=1 effcurve=Myeff P-TCurve=MyPvsT
~ Daily=MyShapePV51 TDaily=MyTemp

New PVSystem.PV_2_2_20 phases=1 bus1=2.2 kV=2.402 kVA=1.001 irrad=0.8 Pmpp=1.001
~ temperature=25 PF=1 effcurve=Myeff P-TCurve=MyPvsT
~ Daily=MyShapePV52 TDaily=MyTemp

New PVSystem.PV_2_2_21 phases=1 bus1=2.2 kV=2.402 kVA=1.001 irrad=0.8 Pmpp=1.001
~ temperature=25 PF=1 effcurve=Myeff P-TCurve=MyPvsT
~ Daily=MyShapePV53 TDaily=MyTemp

New PVSystem.PV_2_2_22 phases=1 bus1=2.2 kV=2.402 kVA=1.001 irrad=0.8 Pmpp=1.001
~ temperature=25 PF=1 effcurve=Myeff P-TCurve=MyPvsT
~ Daily=MyShapePV54 TDaily=MyTemp

New PVSystem.PV_2_2_23 phases=1 bus1=2.2 kV=2.402 kVA=1.001 irrad=0.8 Pmpp=1.001
~ temperature=25 PF=1 effcurve=Myeff P-TCurve=MyPvsT
~ Daily=MyShapePV55 TDaily=MyTemp

New PVSystem.PV_2_2_24 phases=1 bus1=2.2 kV=2.402 kVA=1.001 irrad=0.8 Pmpp=1.001
~ temperature=25 PF=1 effcurve=Myeff P-TCurve=MyPvsT
~ Daily=MyShapePV56 TDaily=MyTemp

New PVSystem.PV_2_2_25 phases=1 bus1=2.2 kV=2.402 kVA=1.001 irrad=0.8 Pmpp=1.001
~ temperature=25 PF=1 effcurve=Myeff P-TCurve=MyPvsT
~ Daily=MyShapePV57 TDaily=MyTemp

New PVSystem.PV_2_2_26 phases=1 bus1=2.2 kV=2.402 kVA=1.001 irrad=0.8 Pmpp=1.001
~ temperature=25 PF=1 effcurve=Myeff P-TCurve=MyPvsT
~ Daily=MyShapePV58 TDaily=MyTemp

New PVSystem.PV_2_2_27 phases=1 bus1=2.2 kV=2.402 kVA=1.001 irrad=0.8 Pmpp=1.001
~ temperature=25 PF=1 effcurve=Myeff P-TCurve=MyPvsT
~ Daily=MyShapePV59 TDaily=MyTemp

New PVSystem.PV_2_2_28 phases=1 bus1=2.2 kV=2.402 kVA=1.001 irrad=0.8 Pmpp=1.001
~ temperature=25 PF=1 effcurve=Myeff P-TCurve=MyPvsT
~ Daily=MyShapePV60 TDaily=MyTemp

New PVSystem.PV_2_2_29 phases=1 bus1=2.2 kV=2.402 kVA=1.001 irrad=0.8 Pmpp=1.001
~ temperature=25 PF=1 effcurve=Myeff P-TCurve=MyPvsT
~ Daily=MyShapePV61 TDaily=MyTemp

New PVSystem.PV_2_2_30 phases=1 bus1=2.2 kV=2.402 kVA=1.001 irrad=0.8 Pmpp=1.001
~ temperature=25 PF=1 effcurve=Myeff P-TCurve=MyPvsT
~ Daily=MyShapePV62 TDaily=MyTemp

New PVSystem.PV_4_3_1 phases=1 bus1=4.3 kV=2.402 kVA=1.818 irrad=0.8 Pmpp=1.818
~ temperature=25 PF=1 effcurve=Myeff P-TCurve=MyPvsT
~ Daily=MyShapePV63 TDaily=MyTemp

New PVSystem.PV_4_3_2 phases=1 bus1=4.3 kV=2.402 kVA=1.818 irrad=0.8 Pmpp=1.818
~ temperature=25 PF=1 effcurve=Myeff P-TCurve=MyPvsT
~ Daily=MyShapePV64 TDaily=MyTemp

New PVSystem.PV_4_3_3 phases=1 bus1=4.3 kV=2.402 kVA=1.818 irrad=0.8 Pmpp=1.818
~ temperature=25 PF=1 effcurve=Myeff P-TCurve=MyPvsT
~ Daily=MyShapePV65 TDaily=MyTemp

New PVSystem.PV_4_3_4 phases=1 bus1=4.3 kV=2.402 kVA=1.818 irrad=0.8 Pmpp=1.818
~ temperature=25 PF=1 effcurve=Myeff P-TCurve=MyPvsT
~ Daily=MyShapePV66 TDaily=MyTemp

New PVSystem.PV_4_3_5 phases=1 bus1=4.3 kV=2.402 kVA=1.818 irrad=0.8 Pmpp=1.818
~ temperature=25 PF=1 effcurve=Myeff P-TCurve=MyPvsT
~ Daily=MyShapePV67 TDaily=MyTemp

New PVSystem.PV_4_3_6 phases=1 bus1=4.3 kV=2.402 kVA=1.818 irrad=0.8 Pmpp=1.818
~ temperature=25 PF=1 effcurve=Myeff P-TCurve=MyPvsT
~ Daily=MyShapePV68 TDaily=MyTemp

New PVSystem.PV_4_3_7 phases=1 bus1=4.3 kV=2.402 kVA=1.818 irrad=0.8 Pmpp=1.818
~ temperature=25 PF=1 effcurve=Myeff P-TCurve=MyPvsT
~ Daily=MyShapePV69 TDaily=MyTemp

New PVSystem.PV_4_3_8 phases=1 bus1=4.3 kV=2.402 kVA=1.818 irrad=0.8 Pmpp=1.818
~ temperature=25 PF=1 effcurve=Myeff P-TCurve=MyPvsT
~ Daily=MyShapePV70 TDaily=MyTemp

New PVSystem.PV_4_3_9 phases=1 bus1=4.3 kV=2.402 kVA=1.818 irrad=0.8 Pmpp=1.818
~ temperature=25 PF=1 effcurve=Myeff P-TCurve=MyPvsT
~ Daily=MyShapePV71 TDaily=MyTemp

New PVSystem.PV_4_3_10 phases=1 bus1=4.3 kV=2.402 kVA=1.818 irrad=0.8 Pmpp=1.818
~ temperature=25 PF=1 effcurve=Myeff P-TCurve=MyPvsT
~ Daily=MyShapePV72 TDaily=MyTemp

New PVSystem.PV_4_3_11 phases=1 bus1=4.3 kV=2.402 kVA=1.818 irrad=0.8 Pmpp=1.818
~ temperature=25 PF=1 effcurve=Myeff P-TCurve=MyPvsT
~ Daily=MyShapePV73 TDaily=MyTemp

New PVSystem.PV_4_3_12 phases=1 bus1=4.3 kV=2.402 kVA=1.818 irrad=0.8 Pmpp=1.818
~ temperature=25 PF=1 effcurve=Myeff P-TCurve=MyPvsT
~ Daily=MyShapePV74 TDaily=MyTemp

New PVSystem.PV_4_3_13 phases=1 bus1=4.3 kV=2.402 kVA=1.818 irrad=0.8 Pmpp=1.818
~ temperature=25 PF=1 effcurve=Myeff P-TCurve=MyPvsT
~ Daily=MyShapePV75 TDaily=MyTemp

New PVSystem.PV_4_3_14 phases=1 bus1=4.3 kV=2.402 kVA=1.818 irrad=0.8 Pmpp=1.818
~ temperature=25 PF=1 effcurve=Myeff P-TCurve=MyPvsT
~ Daily=MyShapePV76 TDaily=MyTemp

New PVSystem.PV_4_3_15 phases=1 bus1=4.3 kV=2.402 kVA=1.818 irrad=0.8 Pmpp=1.818
~ temperature=25 PF=1 effcurve=Myeff P-TCurve=MyPvsT
~ Daily=MyShapePV77 TDaily=MyTemp

New PVSystem.PV_4_3_16 phases=1 bus1=4.3 kV=2.402 kVA=1.818 irrad=0.8 Pmpp=1.818
~ temperature=25 PF=1 effcurve=Myeff P-TCurve=MyPvsT
~ Daily=MyShapePV78 TDaily=MyTemp

New PVSystem.PV_4_3_17 phases=1 bus1=4.3 kV=2.402 kVA=1.818 irrad=0.8 Pmpp=1.818
~ temperature=25 PF=1 effcurve=Myeff P-TCurve=MyPvsT
~ Daily=MyShapePV79 TDaily=MyTemp

New PVSystem.PV_4_3_18 phases=1 bus1=4.3 kV=2.402 kVA=1.818 irrad=0.8 Pmpp=1.818
~ temperature=25 PF=1 effcurve=Myeff P-TCurve=MyPvsT
~ Daily=MyShapePV80 TDaily=MyTemp

New PVSystem.PV_4_3_19 phases=1 bus1=4.3 kV=2.402 kVA=1.818 irrad=0.8 Pmpp=1.818
~ temperature=25 PF=1 effcurve=Myeff P-TCurve=MyPvsT
~ Daily=MyShapePV81 TDaily=MyTemp

New PVSystem.PV_4_3_20 phases=1 bus1=4.3 kV=2.402 kVA=1.818 irrad=0.8 Pmpp=1.818
~ temperature=25 PF=1 effcurve=Myeff P-TCurve=MyPvsT
~ Daily=MyShapePV82 TDaily=MyTemp

New PVSystem.PV_4_3_21 phases=1 bus1=4.3 kV=2.402 kVA=1.818 irrad=0.8 Pmpp=1.818
~ temperature=25 PF=1 effcurve=Myeff P-TCurve=MyPvsT
~ Daily=MyShapePV83 TDaily=MyTemp

New PVSystem.PV_4_3_22 phases=1 bus1=4.3 kV=2.402 kVA=1.818 irrad=0.8 Pmpp=1.818
~ temperature=25 PF=1 effcurve=Myeff P-TCurve=MyPvsT
~ Daily=MyShapePV84 TDaily=MyTemp

New PVSystem.PV_4_3_23 phases=1 bus1=4.3 kV=2.402 kVA=1.818 irrad=0.8 Pmpp=1.818
~ temperature=25 PF=1 effcurve=Myeff P-TCurve=MyPvsT
~ Daily=MyShapePV85 TDaily=MyTemp

New PVSystem.PV_4_3_24 phases=1 bus1=4.3 kV=2.402 kVA=1.818 irrad=0.8 Pmpp=1.818
~ temperature=25 PF=1 effcurve=Myeff P-TCurve=MyPvsT
~ Daily=MyShapePV86 TDaily=MyTemp

New PVSystem.PV_4_3_25 phases=1 bus1=4.3 kV=2.402 kVA=1.818 irrad=0.8 Pmpp=1.818
~ temperature=25 PF=1 effcurve=Myeff P-TCurve=MyPvsT
~ Daily=MyShapePV87 TDaily=MyTemp

New PVSystem.PV_4_3_26 phases=1 bus1=4.3 kV=2.402 kVA=1.818 irrad=0.8 Pmpp=1.818
~ temperature=25 PF=1 effcurve=Myeff P-TCurve=MyPvsT
~ Daily=MyShapePV88 TDaily=MyTemp

New PVSystem.PV_4_3_27 phases=1 bus1=4.3 kV=2.402 kVA=1.818 irrad=0.8 Pmpp=1.818
~ temperature=25 PF=1 effcurve=Myeff P-TCurve=MyPvsT
~ Daily=MyShapePV89 TDaily=MyTemp

New PVSystem.PV_4_3_28 phases=1 bus1=4.3 kV=2.402 kVA=1.818 irrad=0.8 Pmpp=1.818
~ temperature=25 PF=1 effcurve=Myeff P-TCurve=MyPvsT
~ Daily=MyShapePV90 TDaily=MyTemp

New PVSystem.PV_4_3_29 phases=1 bus1=4.3 kV=2.402 kVA=1.818 irrad=0.8 Pmpp=1.818
~ temperature=25 PF=1 effcurve=Myeff P-TCurve=MyPvsT
~ Daily=MyShapePV1 TDaily=MyTemp

New PVSystem.PV_4_3_30 phases=1 bus1=4.3 kV=2.402 kVA=1.818 irrad=0.8 Pmpp=1.818
~ temperature=25 PF=1 effcurve=Myeff P-TCurve=MyPvsT
~ Daily=MyShapePV2 TDaily=MyTemp

New PVSystem.PV_4_3_31 phases=1 bus1=4.3 kV=2.402 kVA=1.818 irrad=0.8 Pmpp=1.818
~ temperature=25 PF=1 effcurve=Myeff P-TCurve=MyPvsT
~ Daily=MyShapePV3 TDaily=MyTemp

New PVSystem.PV_4_3_32 phases=1 bus1=4.3 kV=2.402 kVA=1.818 irrad=0.8 Pmpp=1.818
~ temperature=25 PF=1 effcurve=Myeff P-TCurve=MyPvsT
~ Daily=MyShapePV4 TDaily=MyTemp

New PVSystem.PV_4_3_33 phases=1 bus1=4.3 kV=2.402 kVA=1.818 irrad=0.8 Pmpp=1.818
~ temperature=25 PF=1 effcurve=Myeff P-TCurve=MyPvsT
~ Daily=MyShapePV5 TDaily=MyTemp

New PVSystem.PV_5_3_1 phases=1 bus1=5.3 kV=2.402 kVA=0.909 irrad=0.8 Pmpp=0.909
~ temperature=25 PF=1 effcurve=Myeff P-TCurve=MyPvsT
~ Daily=MyShapePV6 TDaily=MyTemp

New PVSystem.PV_5_3_2 phases=1 bus1=5.3 kV=2.402 kVA=0.909 irrad=0.8 Pmpp=0.909
~ temperature=25 PF=1 effcurve=Myeff P-TCurve=MyPvsT
~ Daily=MyShapePV7 TDaily=MyTemp

New PVSystem.PV_5_3_3 phases=1 bus1=5.3 kV=2.402 kVA=0.909 irrad=0.8 Pmpp=0.909
~ temperature=25 PF=1 effcurve=Myeff P-TCurve=MyPvsT
~ Daily=MyShapePV8 TDaily=MyTemp

New PVSystem.PV_5_3_4 phases=1 bus1=5.3 kV=2.402 kVA=0.909 irrad=0.8 Pmpp=0.909
~ temperature=25 PF=1 effcurve=Myeff P-TCurve=MyPvsT
~ Daily=MyShapePV9 TDaily=MyTemp

New PVSystem.PV_5_3_5 phases=1 bus1=5.3 kV=2.402 kVA=0.909 irrad=0.8 Pmpp=0.909
~ temperature=25 PF=1 effcurve=Myeff P-TCurve=MyPvsT
~ Daily=MyShapePV10 TDaily=MyTemp

New PVSystem.PV_5_3_6 phases=1 bus1=5.3 kV=2.402 kVA=0.909 irrad=0.8 Pmpp=0.909
~ temperature=25 PF=1 effcurve=Myeff P-TCurve=MyPvsT
~ Daily=MyShapePV11 TDaily=MyTemp

New PVSystem.PV_5_3_7 phases=1 bus1=5.3 kV=2.402 kVA=0.909 irrad=0.8 Pmpp=0.909
~ temperature=25 PF=1 effcurve=Myeff P-TCurve=MyPvsT
~ Daily=MyShapePV12 TDaily=MyTemp

New PVSystem.PV_5_3_8 phases=1 bus1=5.3 kV=2.402 kVA=0.909 irrad=0.8 Pmpp=0.909
~ temperature=25 PF=1 effcurve=Myeff P-TCurve=MyPvsT
~ Daily=MyShapePV13 TDaily=MyTemp

New PVSystem.PV_5_3_9 phases=1 bus1=5.3 kV=2.402 kVA=0.909 irrad=0.8 Pmpp=0.909
~ temperature=25 PF=1 effcurve=Myeff P-TCurve=MyPvsT
~ Daily=MyShapePV14 TDaily=MyTemp

New PVSystem.PV_5_3_10 phases=1 bus1=5.3 kV=2.402 kVA=0.909 irrad=0.8 Pmpp=0.909
~ temperature=25 PF=1 effcurve=Myeff P-TCurve=MyPvsT
~ Daily=MyShapePV15 TDaily=MyTemp

New PVSystem.PV_5_3_11 phases=1 bus1=5.3 kV=2.402 kVA=0.909 irrad=0.8 Pmpp=0.909
~ temperature=25 PF=1 effcurve=Myeff P-TCurve=MyPvsT
~ Daily=MyShapePV16 TDaily=MyTemp

New PVSystem.PV_5_3_12 phases=1 bus1=5.3 kV=2.402 kVA=0.909 irrad=0.8 Pmpp=0.909
~ temperature=25 PF=1 effcurve=Myeff P-TCurve=MyPvsT
~ Daily=MyShapePV17 TDaily=MyTemp

New PVSystem.PV_5_3_13 phases=1 bus1=5.3 kV=2.402 kVA=0.909 irrad=0.8 Pmpp=0.909
~ temperature=25 PF=1 effcurve=Myeff P-TCurve=MyPvsT
~ Daily=MyShapePV18 TDaily=MyTemp

New PVSystem.PV_5_3_14 phases=1 bus1=5.3 kV=2.402 kVA=0.909 irrad=0.8 Pmpp=0.909
~ temperature=25 PF=1 effcurve=Myeff P-TCurve=MyPvsT
~ Daily=MyShapePV19 TDaily=MyTemp

New PVSystem.PV_5_3_15 phases=1 bus1=5.3 kV=2.402 kVA=0.909 irrad=0.8 Pmpp=0.909
~ temperature=25 PF=1 effcurve=Myeff P-TCurve=MyPvsT
~ Daily=MyShapePV20 TDaily=MyTemp

New PVSystem.PV_5_3_16 phases=1 bus1=5.3 kV=2.402 kVA=0.909 irrad=0.8 Pmpp=0.909
~ temperature=25 PF=1 effcurve=Myeff P-TCurve=MyPvsT
~ Daily=MyShapePV21 TDaily=MyTemp

New PVSystem.PV_5_3_17 phases=1 bus1=5.3 kV=2.402 kVA=0.909 irrad=0.8 Pmpp=0.909
~ temperature=25 PF=1 effcurve=Myeff P-TCurve=MyPvsT
~ Daily=MyShapePV22 TDaily=MyTemp

New PVSystem.PV_5_3_18 phases=1 bus1=5.3 kV=2.402 kVA=0.909 irrad=0.8 Pmpp=0.909
~ temperature=25 PF=1 effcurve=Myeff P-TCurve=MyPvsT
~ Daily=MyShapePV23 TDaily=MyTemp

New PVSystem.PV_5_3_19 phases=1 bus1=5.3 kV=2.402 kVA=0.909 irrad=0.8 Pmpp=0.909
~ temperature=25 PF=1 effcurve=Myeff P-TCurve=MyPvsT
~ Daily=MyShapePV24 TDaily=MyTemp

New PVSystem.PV_5_3_20 phases=1 bus1=5.3 kV=2.402 kVA=0.909 irrad=0.8 Pmpp=0.909
~ temperature=25 PF=1 effcurve=Myeff P-TCurve=MyPvsT
~ Daily=MyShapePV25 TDaily=MyTemp

New PVSystem.PV_5_3_21 phases=1 bus1=5.3 kV=2.402 kVA=0.909 irrad=0.8 Pmpp=0.909
~ temperature=25 PF=1 effcurve=Myeff P-TCurve=MyPvsT
~ Daily=MyShapePV26 TDaily=MyTemp

New PVSystem.PV_5_3_22 phases=1 bus1=5.3 kV=2.402 kVA=0.909 irrad=0.8 Pmpp=0.909
~ temperature=25 PF=1 effcurve=Myeff P-TCurve=MyPvsT
~ Daily=MyShapePV27 TDaily=MyTemp

New PVSystem.PV_5_3_23 phases=1 bus1=5.3 kV=2.402 kVA=0.909 irrad=0.8 Pmpp=0.909
~ temperature=25 PF=1 effcurve=Myeff P-TCurve=MyPvsT
~ Daily=MyShapePV28 TDaily=MyTemp

New PVSystem.PV_5_3_24 phases=1 bus1=5.3 kV=2.402 kVA=0.909 irrad=0.8 Pmpp=0.909
~ temperature=25 PF=1 effcurve=Myeff P-TCurve=MyPvsT
~ Daily=MyShapePV29 TDaily=MyTemp

New PVSystem.PV_5_3_25 phases=1 bus1=5.3 kV=2.402 kVA=0.909 irrad=0.8 Pmpp=0.909
~ temperature=25 PF=1 effcurve=Myeff P-TCurve=MyPvsT
~ Daily=MyShapePV30 TDaily=MyTemp

New PVSystem.PV_5_3_26 phases=1 bus1=5.3 kV=2.402 kVA=0.909 irrad=0.8 Pmpp=0.909
~ temperature=25 PF=1 effcurve=Myeff P-TCurve=MyPvsT
~ Daily=MyShapePV31 TDaily=MyTemp

New PVSystem.PV_5_3_27 phases=1 bus1=5.3 kV=2.402 kVA=0.909 irrad=0.8 Pmpp=0.909
~ temperature=25 PF=1 effcurve=Myeff P-TCurve=MyPvsT
~ Daily=MyShapePV32 TDaily=MyTemp

New PVSystem.PV_5_3_28 phases=1 bus1=5.3 kV=2.402 kVA=0.909 irrad=0.8 Pmpp=0.909
~ temperature=25 PF=1 effcurve=Myeff P-TCurve=MyPvsT
~ Daily=MyShapePV33 TDaily=MyTemp

New PVSystem.PV_5_3_29 phases=1 bus1=5.3 kV=2.402 kVA=0.909 irrad=0.8 Pmpp=0.909
~ temperature=25 PF=1 effcurve=Myeff P-TCurve=MyPvsT
~ Daily=MyShapePV34 TDaily=MyTemp

New PVSystem.PV_5_3_30 phases=1 bus1=5.3 kV=2.402 kVA=0.909 irrad=0.8 Pmpp=0.909
~ temperature=25 PF=1 effcurve=Myeff P-TCurve=MyPvsT
~ Daily=MyShapePV35 TDaily=MyTemp

New PVSystem.PV_5_3_31 phases=1 bus1=5.3 kV=2.402 kVA=0.909 irrad=0.8 Pmpp=0.909
~ temperature=25 PF=1 effcurve=Myeff P-TCurve=MyPvsT
~ Daily=MyShapePV36 TDaily=MyTemp

New PVSystem.PV_5_3_32 phases=1 bus1=5.3 kV=2.402 kVA=0.909 irrad=0.8 Pmpp=0.909
~ temperature=25 PF=1 effcurve=Myeff P-TCurve=MyPvsT
~ Daily=MyShapePV37 TDaily=MyTemp

New PVSystem.PV_5_3_33 phases=1 bus1=5.3 kV=2.402 kVA=0.909 irrad=0.8 Pmpp=0.909
~ temperature=25 PF=1 effcurve=Myeff P-TCurve=MyPvsT
~ Daily=MyShapePV38 TDaily=MyTemp

New PVSystem.PV_6_3_1 phases=1 bus1=6.3 kV=2.402 kVA=1.539 irrad=0.8 Pmpp=1.539
~ temperature=25 PF=1 effcurve=Myeff P-TCurve=MyPvsT
~ Daily=MyShapePV39 TDaily=MyTemp

New PVSystem.PV_6_3_2 phases=1 bus1=6.3 kV=2.402 kVA=1.539 irrad=0.8 Pmpp=1.539
~ temperature=25 PF=1 effcurve=Myeff P-TCurve=MyPvsT
~ Daily=MyShapePV40 TDaily=MyTemp

New PVSystem.PV_6_3_3 phases=1 bus1=6.3 kV=2.402 kVA=1.539 irrad=0.8 Pmpp=1.539
~ temperature=25 PF=1 effcurve=Myeff P-TCurve=MyPvsT
~ Daily=MyShapePV41 TDaily=MyTemp

New PVSystem.PV_6_3_4 phases=1 bus1=6.3 kV=2.402 kVA=1.539 irrad=0.8 Pmpp=1.539
~ temperature=25 PF=1 effcurve=Myeff P-TCurve=MyPvsT
~ Daily=MyShapePV42 TDaily=MyTemp

New PVSystem.PV_6_3_5 phases=1 bus1=6.3 kV=2.402 kVA=1.539 irrad=0.8 Pmpp=1.539
~ temperature=25 PF=1 effcurve=Myeff P-TCurve=MyPvsT
~ Daily=MyShapePV43 TDaily=MyTemp

New PVSystem.PV_6_3_6 phases=1 bus1=6.3 kV=2.402 kVA=1.539 irrad=0.8 Pmpp=1.539
~ temperature=25 PF=1 effcurve=Myeff P-TCurve=MyPvsT
~ Daily=MyShapePV44 TDaily=MyTemp

New PVSystem.PV_6_3_7 phases=1 bus1=6.3 kV=2.402 kVA=1.539 irrad=0.8 Pmpp=1.539
~ temperature=25 PF=1 effcurve=Myeff P-TCurve=MyPvsT
~ Daily=MyShapePV45 TDaily=MyTemp

New PVSystem.PV_6_3_8 phases=1 bus1=6.3 kV=2.402 kVA=1.539 irrad=0.8 Pmpp=1.539
~ temperature=25 PF=1 effcurve=Myeff P-TCurve=MyPvsT
~ Daily=MyShapePV46 TDaily=MyTemp

New PVSystem.PV_6_3_9 phases=1 bus1=6.3 kV=2.402 kVA=1.539 irrad=0.8 Pmpp=1.539
~ temperature=25 PF=1 effcurve=Myeff P-TCurve=MyPvsT
~ Daily=MyShapePV47 TDaily=MyTemp

New PVSystem.PV_6_3_10 phases=1 bus1=6.3 kV=2.402 kVA=1.539 irrad=0.8 Pmpp=1.539
~ temperature=25 PF=1 effcurve=Myeff P-TCurve=MyPvsT
~ Daily=MyShapePV48 TDaily=MyTemp

New PVSystem.PV_6_3_11 phases=1 bus1=6.3 kV=2.402 kVA=1.539 irrad=0.8 Pmpp=1.539
~ temperature=25 PF=1 effcurve=Myeff P-TCurve=MyPvsT
~ Daily=MyShapePV49 TDaily=MyTemp

New PVSystem.PV_6_3_12 phases=1 bus1=6.3 kV=2.402 kVA=1.539 irrad=0.8 Pmpp=1.539
~ temperature=25 PF=1 effcurve=Myeff P-TCurve=MyPvsT
~ Daily=MyShapePV50 TDaily=MyTemp

New PVSystem.PV_6_3_13 phases=1 bus1=6.3 kV=2.402 kVA=1.539 irrad=0.8 Pmpp=1.539
~ temperature=25 PF=1 effcurve=Myeff P-TCurve=MyPvsT
~ Daily=MyShapePV51 TDaily=MyTemp

New PVSystem.PV_6_3_14 phases=1 bus1=6.3 kV=2.402 kVA=1.539 irrad=0.8 Pmpp=1.539
~ temperature=25 PF=1 effcurve=Myeff P-TCurve=MyPvsT
~ Daily=MyShapePV52 TDaily=MyTemp

New PVSystem.PV_6_3_15 phases=1 bus1=6.3 kV=2.402 kVA=1.539 irrad=0.8 Pmpp=1.539
~ temperature=25 PF=1 effcurve=Myeff P-TCurve=MyPvsT
~ Daily=MyShapePV53 TDaily=MyTemp

New PVSystem.PV_6_3_16 phases=1 bus1=6.3 kV=2.402 kVA=1.539 irrad=0.8 Pmpp=1.539
~ temperature=25 PF=1 effcurve=Myeff P-TCurve=MyPvsT
~ Daily=MyShapePV54 TDaily=MyTemp

New PVSystem.PV_6_3_17 phases=1 bus1=6.3 kV=2.402 kVA=1.539 irrad=0.8 Pmpp=1.539
~ temperature=25 PF=1 effcurve=Myeff P-TCurve=MyPvsT
~ Daily=MyShapePV55 TDaily=MyTemp

New PVSystem.PV_6_3_18 phases=1 bus1=6.3 kV=2.402 kVA=1.539 irrad=0.8 Pmpp=1.539
~ temperature=25 PF=1 effcurve=Myeff P-TCurve=MyPvsT
~ Daily=MyShapePV56 TDaily=MyTemp

New PVSystem.PV_6_3_19 phases=1 bus1=6.3 kV=2.402 kVA=1.539 irrad=0.8 Pmpp=1.539
~ temperature=25 PF=1 effcurve=Myeff P-TCurve=MyPvsT
~ Daily=MyShapePV57 TDaily=MyTemp

New PVSystem.PV_6_3_20 phases=1 bus1=6.3 kV=2.402 kVA=1.539 irrad=0.8 Pmpp=1.539
~ temperature=25 PF=1 effcurve=Myeff P-TCurve=MyPvsT
~ Daily=MyShapePV58 TDaily=MyTemp

New PVSystem.PV_6_3_21 phases=1 bus1=6.3 kV=2.402 kVA=1.539 irrad=0.8 Pmpp=1.539
~ temperature=25 PF=1 effcurve=Myeff P-TCurve=MyPvsT
~ Daily=MyShapePV59 TDaily=MyTemp

New PVSystem.PV_6_3_22 phases=1 bus1=6.3 kV=2.402 kVA=1.539 irrad=0.8 Pmpp=1.539
~ temperature=25 PF=1 effcurve=Myeff P-TCurve=MyPvsT
~ Daily=MyShapePV60 TDaily=MyTemp

New PVSystem.PV_6_3_23 phases=1 bus1=6.3 kV=2.402 kVA=1.539 irrad=0.8 Pmpp=1.539
~ temperature=25 PF=1 effcurve=Myeff P-TCurve=MyPvsT
~ Daily=MyShapePV61 TDaily=MyTemp

New PVSystem.PV_6_3_24 phases=1 bus1=6.3 kV=2.402 kVA=1.539 irrad=0.8 Pmpp=1.539
~ temperature=25 PF=1 effcurve=Myeff P-TCurve=MyPvsT
~ Daily=MyShapePV62 TDaily=MyTemp

New PVSystem.PV_6_3_25 phases=1 bus1=6.3 kV=2.402 kVA=1.539 irrad=0.8 Pmpp=1.539
~ temperature=25 PF=1 effcurve=Myeff P-TCurve=MyPvsT
~ Daily=MyShapePV63 TDaily=MyTemp

New PVSystem.PV_6_3_26 phases=1 bus1=6.3 kV=2.402 kVA=1.539 irrad=0.8 Pmpp=1.539
~ temperature=25 PF=1 effcurve=Myeff P-TCurve=MyPvsT
~ Daily=MyShapePV64 TDaily=MyTemp

New PVSystem.PV_6_3_27 phases=1 bus1=6.3 kV=2.402 kVA=1.539 irrad=0.8 Pmpp=1.539
~ temperature=25 PF=1 effcurve=Myeff P-TCurve=MyPvsT
~ Daily=MyShapePV65 TDaily=MyTemp

New PVSystem.PV_6_3_28 phases=1 bus1=6.3 kV=2.402 kVA=1.539 irrad=0.8 Pmpp=1.539
~ temperature=25 PF=1 effcurve=Myeff P-TCurve=MyPvsT
~ Daily=MyShapePV66 TDaily=MyTemp

New PVSystem.PV_6_3_29 phases=1 bus1=6.3 kV=2.402 kVA=1.539 irrad=0.8 Pmpp=1.539
~ temperature=25 PF=1 effcurve=Myeff P-TCurve=MyPvsT
~ Daily=MyShapePV67 TDaily=MyTemp

New PVSystem.PV_6_3_30 phases=1 bus1=6.3 kV=2.402 kVA=1.539 irrad=0.8 Pmpp=1.539
~ temperature=25 PF=1 effcurve=Myeff P-TCurve=MyPvsT
~ Daily=MyShapePV68 TDaily=MyTemp

New PVSystem.PV_6_3_31 phases=1 bus1=6.3 kV=2.402 kVA=1.539 irrad=0.8 Pmpp=1.539
~ temperature=25 PF=1 effcurve=Myeff P-TCurve=MyPvsT
~ Daily=MyShapePV69 TDaily=MyTemp

New PVSystem.PV_6_3_32 phases=1 bus1=6.3 kV=2.402 kVA=1.539 irrad=0.8 Pmpp=1.539
~ temperature=25 PF=1 effcurve=Myeff P-TCurve=MyPvsT
~ Daily=MyShapePV70 TDaily=MyTemp

New PVSystem.PV_6_3_33 phases=1 bus1=6.3 kV=2.402 kVA=1.539 irrad=0.8 Pmpp=1.539
~ temperature=25 PF=1 effcurve=Myeff P-TCurve=MyPvsT
~ Daily=MyShapePV71 TDaily=MyTemp

New PVSystem.PV_6_3_34 phases=1 bus1=6.3 kV=2.402 kVA=1.539 irrad=0.8 Pmpp=1.539
~ temperature=25 PF=1 effcurve=Myeff P-TCurve=MyPvsT
~ Daily=MyShapePV72 TDaily=MyTemp

New PVSystem.PV_6_3_35 phases=1 bus1=6.3 kV=2.402 kVA=1.539 irrad=0.8 Pmpp=1.539
~ temperature=25 PF=1 effcurve=Myeff P-TCurve=MyPvsT
~ Daily=MyShapePV73 TDaily=MyTemp

New PVSystem.PV_6_3_36 phases=1 bus1=6.3 kV=2.402 kVA=1.539 irrad=0.8 Pmpp=1.539
~ temperature=25 PF=1 effcurve=Myeff P-TCurve=MyPvsT
~ Daily=MyShapePV74 TDaily=MyTemp

New PVSystem.PV_6_3_37 phases=1 bus1=6.3 kV=2.402 kVA=1.539 irrad=0.8 Pmpp=1.539
~ temperature=25 PF=1 effcurve=Myeff P-TCurve=MyPvsT
~ Daily=MyShapePV75 TDaily=MyTemp

New PVSystem.PV_6_3_38 phases=1 bus1=6.3 kV=2.402 kVA=1.539 irrad=0.8 Pmpp=1.539
~ temperature=25 PF=1 effcurve=Myeff P-TCurve=MyPvsT
~ Daily=MyShapePV76 TDaily=MyTemp

New PVSystem.PV_6_3_39 phases=1 bus1=6.3 kV=2.402 kVA=1.539 irrad=0.8 Pmpp=1.539
~ temperature=25 PF=1 effcurve=Myeff P-TCurve=MyPvsT
~ Daily=MyShapePV77 TDaily=MyTemp

New PVSystem.PV_7_1_1 phases=1 bus1=7.1 kV=2.402 kVA=0.770 irrad=0.8 Pmpp=0.770
~ temperature=25 PF=1 effcurve=Myeff P-TCurve=MyPvsT
~ Daily=MyShapePV78 TDaily=MyTemp

New PVSystem.PV_7_1_2 phases=1 bus1=7.1 kV=2.402 kVA=0.770 irrad=0.8 Pmpp=0.770
~ temperature=25 PF=1 effcurve=Myeff P-TCurve=MyPvsT
~ Daily=MyShapePV79 TDaily=MyTemp

New PVSystem.PV_7_1_3 phases=1 bus1=7.1 kV=2.402 kVA=0.770 irrad=0.8 Pmpp=0.770
~ temperature=25 PF=1 effcurve=Myeff P-TCurve=MyPvsT
~ Daily=MyShapePV80 TDaily=MyTemp

New PVSystem.PV_7_1_4 phases=1 bus1=7.1 kV=2.402 kVA=0.770 irrad=0.8 Pmpp=0.770
~ temperature=25 PF=1 effcurve=Myeff P-TCurve=MyPvsT
~ Daily=MyShapePV81 TDaily=MyTemp

New PVSystem.PV_7_1_5 phases=1 bus1=7.1 kV=2.402 kVA=0.770 irrad=0.8 Pmpp=0.770
~ temperature=25 PF=1 effcurve=Myeff P-TCurve=MyPvsT
~ Daily=MyShapePV82 TDaily=MyTemp

New PVSystem.PV_7_1_6 phases=1 bus1=7.1 kV=2.402 kVA=0.770 irrad=0.8 Pmpp=0.770
~ temperature=25 PF=1 effcurve=Myeff P-TCurve=MyPvsT
~ Daily=MyShapePV83 TDaily=MyTemp

New PVSystem.PV_7_1_7 phases=1 bus1=7.1 kV=2.402 kVA=0.770 irrad=0.8 Pmpp=0.770
~ temperature=25 PF=1 effcurve=Myeff P-TCurve=MyPvsT
~ Daily=MyShapePV84 TDaily=MyTemp

New PVSystem.PV_7_1_8 phases=1 bus1=7.1 kV=2.402 kVA=0.770 irrad=0.8 Pmpp=0.770
~ temperature=25 PF=1 effcurve=Myeff P-TCurve=MyPvsT
~ Daily=MyShapePV85 TDaily=MyTemp

New PVSystem.PV_7_1_9 phases=1 bus1=7.1 kV=2.402 kVA=0.770 irrad=0.8 Pmpp=0.770
~ temperature=25 PF=1 effcurve=Myeff P-TCurve=MyPvsT
~ Daily=MyShapePV86 TDaily=MyTemp

New PVSystem.PV_7_1_10 phases=1 bus1=7.1 kV=2.402 kVA=0.770 irrad=0.8 Pmpp=0.770
~ temperature=25 PF=1 effcurve=Myeff P-TCurve=MyPvsT
~ Daily=MyShapePV87 TDaily=MyTemp

New PVSystem.PV_7_1_11 phases=1 bus1=7.1 kV=2.402 kVA=0.770 irrad=0.8 Pmpp=0.770
~ temperature=25 PF=1 effcurve=Myeff P-TCurve=MyPvsT
~ Daily=MyShapePV88 TDaily=MyTemp

New PVSystem.PV_7_1_12 phases=1 bus1=7.1 kV=2.402 kVA=0.770 irrad=0.8 Pmpp=0.770
~ temperature=25 PF=1 effcurve=Myeff P-TCurve=MyPvsT
~ Daily=MyShapePV89 TDaily=MyTemp

New PVSystem.PV_7_1_13 phases=1 bus1=7.1 kV=2.402 kVA=0.770 irrad=0.8 Pmpp=0.770
~ temperature=25 PF=1 effcurve=Myeff P-TCurve=MyPvsT
~ Daily=MyShapePV90 TDaily=MyTemp

New PVSystem.PV_7_1_14 phases=1 bus1=7.1 kV=2.402 kVA=0.770 irrad=0.8 Pmpp=0.770
~ temperature=25 PF=1 effcurve=Myeff P-TCurve=MyPvsT
~ Daily=MyShapePV1 TDaily=MyTemp

New PVSystem.PV_7_1_15 phases=1 bus1=7.1 kV=2.402 kVA=0.770 irrad=0.8 Pmpp=0.770
~ temperature=25 PF=1 effcurve=Myeff P-TCurve=MyPvsT
~ Daily=MyShapePV2 TDaily=MyTemp

New PVSystem.PV_7_1_16 phases=1 bus1=7.1 kV=2.402 kVA=0.770 irrad=0.8 Pmpp=0.770
~ temperature=25 PF=1 effcurve=Myeff P-TCurve=MyPvsT
~ Daily=MyShapePV3 TDaily=MyTemp

New PVSystem.PV_7_1_17 phases=1 bus1=7.1 kV=2.402 kVA=0.770 irrad=0.8 Pmpp=0.770
~ temperature=25 PF=1 effcurve=Myeff P-TCurve=MyPvsT
~ Daily=MyShapePV4 TDaily=MyTemp

New PVSystem.PV_7_1_18 phases=1 bus1=7.1 kV=2.402 kVA=0.770 irrad=0.8 Pmpp=0.770
~ temperature=25 PF=1 effcurve=Myeff P-TCurve=MyPvsT
~ Daily=MyShapePV5 TDaily=MyTemp

New PVSystem.PV_7_1_19 phases=1 bus1=7.1 kV=2.402 kVA=0.770 irrad=0.8 Pmpp=0.770
~ temperature=25 PF=1 effcurve=Myeff P-TCurve=MyPvsT
~ Daily=MyShapePV6 TDaily=MyTemp

New PVSystem.PV_7_1_20 phases=1 bus1=7.1 kV=2.402 kVA=0.770 irrad=0.8 Pmpp=0.770
~ temperature=25 PF=1 effcurve=Myeff P-TCurve=MyPvsT
~ Daily=MyShapePV7 TDaily=MyTemp

New PVSystem.PV_7_1_21 phases=1 bus1=7.1 kV=2.402 kVA=0.770 irrad=0.8 Pmpp=0.770
~ temperature=25 PF=1 effcurve=Myeff P-TCurve=MyPvsT
~ Daily=MyShapePV8 TDaily=MyTemp

New PVSystem.PV_7_1_22 phases=1 bus1=7.1 kV=2.402 kVA=0.770 irrad=0.8 Pmpp=0.770
~ temperature=25 PF=1 effcurve=Myeff P-TCurve=MyPvsT
~ Daily=MyShapePV9 TDaily=MyTemp

New PVSystem.PV_7_1_23 phases=1 bus1=7.1 kV=2.402 kVA=0.770 irrad=0.8 Pmpp=0.770
~ temperature=25 PF=1 effcurve=Myeff P-TCurve=MyPvsT
~ Daily=MyShapePV10 TDaily=MyTemp

New PVSystem.PV_7_1_24 phases=1 bus1=7.1 kV=2.402 kVA=0.770 irrad=0.8 Pmpp=0.770
~ temperature=25 PF=1 effcurve=Myeff P-TCurve=MyPvsT
~ Daily=MyShapePV11 TDaily=MyTemp

New PVSystem.PV_7_1_25 phases=1 bus1=7.1 kV=2.402 kVA=0.770 irrad=0.8 Pmpp=0.770
~ temperature=25 PF=1 effcurve=Myeff P-TCurve=MyPvsT
~ Daily=MyShapePV12 TDaily=MyTemp

New PVSystem.PV_7_1_26 phases=1 bus1=7.1 kV=2.402 kVA=0.770 irrad=0.8 Pmpp=0.770
~ temperature=25 PF=1 effcurve=Myeff P-TCurve=MyPvsT
~ Daily=MyShapePV13 TDaily=MyTemp

New PVSystem.PV_7_1_27 phases=1 bus1=7.1 kV=2.402 kVA=0.770 irrad=0.8 Pmpp=0.770
~ temperature=25 PF=1 effcurve=Myeff P-TCurve=MyPvsT
~ Daily=MyShapePV14 TDaily=MyTemp

New PVSystem.PV_7_1_28 phases=1 bus1=7.1 kV=2.402 kVA=0.770 irrad=0.8 Pmpp=0.770
~ temperature=25 PF=1 effcurve=Myeff P-TCurve=MyPvsT
~ Daily=MyShapePV15 TDaily=MyTemp

New PVSystem.PV_7_1_29 phases=1 bus1=7.1 kV=2.402 kVA=0.770 irrad=0.8 Pmpp=0.770
~ temperature=25 PF=1 effcurve=Myeff P-TCurve=MyPvsT
~ Daily=MyShapePV16 TDaily=MyTemp

New PVSystem.PV_7_1_30 phases=1 bus1=7.1 kV=2.402 kVA=0.770 irrad=0.8 Pmpp=0.770
~ temperature=25 PF=1 effcurve=Myeff P-TCurve=MyPvsT
~ Daily=MyShapePV17 TDaily=MyTemp

New PVSystem.PV_7_1_31 phases=1 bus1=7.1 kV=2.402 kVA=0.770 irrad=0.8 Pmpp=0.770
~ temperature=25 PF=1 effcurve=Myeff P-TCurve=MyPvsT
~ Daily=MyShapePV18 TDaily=MyTemp

New PVSystem.PV_7_1_32 phases=1 bus1=7.1 kV=2.402 kVA=0.770 irrad=0.8 Pmpp=0.770
~ temperature=25 PF=1 effcurve=Myeff P-TCurve=MyPvsT
~ Daily=MyShapePV19 TDaily=MyTemp

New PVSystem.PV_7_1_33 phases=1 bus1=7.1 kV=2.402 kVA=0.770 irrad=0.8 Pmpp=0.770
~ temperature=25 PF=1 effcurve=Myeff P-TCurve=MyPvsT
~ Daily=MyShapePV20 TDaily=MyTemp

New PVSystem.PV_7_1_34 phases=1 bus1=7.1 kV=2.402 kVA=0.770 irrad=0.8 Pmpp=0.770
~ temperature=25 PF=1 effcurve=Myeff P-TCurve=MyPvsT
~ Daily=MyShapePV21 TDaily=MyTemp

New PVSystem.PV_7_1_35 phases=1 bus1=7.1 kV=2.402 kVA=0.770 irrad=0.8 Pmpp=0.770
~ temperature=25 PF=1 effcurve=Myeff P-TCurve=MyPvsT
~ Daily=MyShapePV22 TDaily=MyTemp

New PVSystem.PV_7_1_36 phases=1 bus1=7.1 kV=2.402 kVA=0.770 irrad=0.8 Pmpp=0.770
~ temperature=25 PF=1 effcurve=Myeff P-TCurve=MyPvsT
~ Daily=MyShapePV23 TDaily=MyTemp

New PVSystem.PV_7_1_37 phases=1 bus1=7.1 kV=2.402 kVA=0.770 irrad=0.8 Pmpp=0.770
~ temperature=25 PF=1 effcurve=Myeff P-TCurve=MyPvsT
~ Daily=MyShapePV24 TDaily=MyTemp

New PVSystem.PV_7_1_38 phases=1 bus1=7.1 kV=2.402 kVA=0.770 irrad=0.8 Pmpp=0.770
~ temperature=25 PF=1 effcurve=Myeff P-TCurve=MyPvsT
~ Daily=MyShapePV25 TDaily=MyTemp

New PVSystem.PV_7_1_39 phases=1 bus1=7.1 kV=2.402 kVA=0.770 irrad=0.8 Pmpp=0.770
~ temperature=25 PF=1 effcurve=Myeff P-TCurve=MyPvsT
~ Daily=MyShapePV26 TDaily=MyTemp

New PVSystem.PV_9_1_1 phases=1 bus1=9.1 kV=2.402 kVA=1.715 irrad=0.8 Pmpp=1.715
~ temperature=25 PF=1 effcurve=Myeff P-TCurve=MyPvsT
~ Daily=MyShapePV27 TDaily=MyTemp

New PVSystem.PV_9_1_2 phases=1 bus1=9.1 kV=2.402 kVA=1.715 irrad=0.8 Pmpp=1.715
~ temperature=25 PF=1 effcurve=Myeff P-TCurve=MyPvsT
~ Daily=MyShapePV28 TDaily=MyTemp

New PVSystem.PV_9_1_3 phases=1 bus1=9.1 kV=2.402 kVA=1.715 irrad=0.8 Pmpp=1.715
~ temperature=25 PF=1 effcurve=Myeff P-TCurve=MyPvsT
~ Daily=MyShapePV29 TDaily=MyTemp

New PVSystem.PV_9_1_4 phases=1 bus1=9.1 kV=2.402 kVA=1.715 irrad=0.8 Pmpp=1.715
~ temperature=25 PF=1 effcurve=Myeff P-TCurve=MyPvsT
~ Daily=MyShapePV30 TDaily=MyTemp

New PVSystem.PV_9_1_5 phases=1 bus1=9.1 kV=2.402 kVA=1.715 irrad=0.8 Pmpp=1.715
~ temperature=25 PF=1 effcurve=Myeff P-TCurve=MyPvsT
~ Daily=MyShapePV31 TDaily=MyTemp

New PVSystem.PV_9_1_6 phases=1 bus1=9.1 kV=2.402 kVA=1.715 irrad=0.8 Pmpp=1.715
~ temperature=25 PF=1 effcurve=Myeff P-TCurve=MyPvsT
~ Daily=MyShapePV32 TDaily=MyTemp

New PVSystem.PV_9_1_7 phases=1 bus1=9.1 kV=2.402 kVA=1.715 irrad=0.8 Pmpp=1.715
~ temperature=25 PF=1 effcurve=Myeff P-TCurve=MyPvsT
~ Daily=MyShapePV33 TDaily=MyTemp

New PVSystem.PV_9_1_8 phases=1 bus1=9.1 kV=2.402 kVA=1.715 irrad=0.8 Pmpp=1.715
~ temperature=25 PF=1 effcurve=Myeff P-TCurve=MyPvsT
~ Daily=MyShapePV34 TDaily=MyTemp

New PVSystem.PV_9_1_9 phases=1 bus1=9.1 kV=2.402 kVA=1.715 irrad=0.8 Pmpp=1.715
~ temperature=25 PF=1 effcurve=Myeff P-TCurve=MyPvsT
~ Daily=MyShapePV35 TDaily=MyTemp

New PVSystem.PV_9_1_10 phases=1 bus1=9.1 kV=2.402 kVA=1.715 irrad=0.8 Pmpp=1.715
~ temperature=25 PF=1 effcurve=Myeff P-TCurve=MyPvsT
~ Daily=MyShapePV36 TDaily=MyTemp

New PVSystem.PV_9_1_11 phases=1 bus1=9.1 kV=2.402 kVA=1.715 irrad=0.8 Pmpp=1.715
~ temperature=25 PF=1 effcurve=Myeff P-TCurve=MyPvsT
~ Daily=MyShapePV37 TDaily=MyTemp

New PVSystem.PV_9_1_12 phases=1 bus1=9.1 kV=2.402 kVA=1.715 irrad=0.8 Pmpp=1.715
~ temperature=25 PF=1 effcurve=Myeff P-TCurve=MyPvsT
~ Daily=MyShapePV38 TDaily=MyTemp

New PVSystem.PV_9_1_13 phases=1 bus1=9.1 kV=2.402 kVA=1.715 irrad=0.8 Pmpp=1.715
~ temperature=25 PF=1 effcurve=Myeff P-TCurve=MyPvsT
~ Daily=MyShapePV39 TDaily=MyTemp

New PVSystem.PV_9_1_14 phases=1 bus1=9.1 kV=2.402 kVA=1.715 irrad=0.8 Pmpp=1.715
~ temperature=25 PF=1 effcurve=Myeff P-TCurve=MyPvsT
~ Daily=MyShapePV40 TDaily=MyTemp

New PVSystem.PV_9_1_15 phases=1 bus1=9.1 kV=2.402 kVA=1.715 irrad=0.8 Pmpp=1.715
~ temperature=25 PF=1 effcurve=Myeff P-TCurve=MyPvsT
~ Daily=MyShapePV41 TDaily=MyTemp

New PVSystem.PV_9_1_16 phases=1 bus1=9.1 kV=2.402 kVA=1.715 irrad=0.8 Pmpp=1.715
~ temperature=25 PF=1 effcurve=Myeff P-TCurve=MyPvsT
~ Daily=MyShapePV42 TDaily=MyTemp

New PVSystem.PV_9_1_17 phases=1 bus1=9.1 kV=2.402 kVA=1.715 irrad=0.8 Pmpp=1.715
~ temperature=25 PF=1 effcurve=Myeff P-TCurve=MyPvsT
~ Daily=MyShapePV43 TDaily=MyTemp

New PVSystem.PV_9_1_18 phases=1 bus1=9.1 kV=2.402 kVA=1.715 irrad=0.8 Pmpp=1.715
~ temperature=25 PF=1 effcurve=Myeff P-TCurve=MyPvsT
~ Daily=MyShapePV44 TDaily=MyTemp

New PVSystem.PV_9_1_19 phases=1 bus1=9.1 kV=2.402 kVA=1.715 irrad=0.8 Pmpp=1.715
~ temperature=25 PF=1 effcurve=Myeff P-TCurve=MyPvsT
~ Daily=MyShapePV45 TDaily=MyTemp

New PVSystem.PV_9_1_20 phases=1 bus1=9.1 kV=2.402 kVA=1.715 irrad=0.8 Pmpp=1.715
~ temperature=25 PF=1 effcurve=Myeff P-TCurve=MyPvsT
~ Daily=MyShapePV46 TDaily=MyTemp

New PVSystem.PV_9_1_21 phases=1 bus1=9.1 kV=2.402 kVA=1.715 irrad=0.8 Pmpp=1.715
~ temperature=25 PF=1 effcurve=Myeff P-TCurve=MyPvsT
~ Daily=MyShapePV47 TDaily=MyTemp

New PVSystem.PV_9_1_22 phases=1 bus1=9.1 kV=2.402 kVA=1.715 irrad=0.8 Pmpp=1.715
~ temperature=25 PF=1 effcurve=Myeff P-TCurve=MyPvsT
~ Daily=MyShapePV48 TDaily=MyTemp

New PVSystem.PV_9_1_23 phases=1 bus1=9.1 kV=2.402 kVA=1.715 irrad=0.8 Pmpp=1.715
~ temperature=25 PF=1 effcurve=Myeff P-TCurve=MyPvsT
~ Daily=MyShapePV49 TDaily=MyTemp

New PVSystem.PV_9_1_24 phases=1 bus1=9.1 kV=2.402 kVA=1.715 irrad=0.8 Pmpp=1.715
~ temperature=25 PF=1 effcurve=Myeff P-TCurve=MyPvsT
~ Daily=MyShapePV50 TDaily=MyTemp

New PVSystem.PV_9_1_25 phases=1 bus1=9.1 kV=2.402 kVA=1.715 irrad=0.8 Pmpp=1.715
~ temperature=25 PF=1 effcurve=Myeff P-TCurve=MyPvsT
~ Daily=MyShapePV51 TDaily=MyTemp

New PVSystem.PV_9_1_26 phases=1 bus1=9.1 kV=2.402 kVA=1.715 irrad=0.8 Pmpp=1.715
~ temperature=25 PF=1 effcurve=Myeff P-TCurve=MyPvsT
~ Daily=MyShapePV52 TDaily=MyTemp

New PVSystem.PV_9_1_27 phases=1 bus1=9.1 kV=2.402 kVA=1.715 irrad=0.8 Pmpp=1.715
~ temperature=25 PF=1 effcurve=Myeff P-TCurve=MyPvsT
~ Daily=MyShapePV53 TDaily=MyTemp

New PVSystem.PV_9_1_28 phases=1 bus1=9.1 kV=2.402 kVA=1.715 irrad=0.8 Pmpp=1.715
~ temperature=25 PF=1 effcurve=Myeff P-TCurve=MyPvsT
~ Daily=MyShapePV54 TDaily=MyTemp

New PVSystem.PV_9_1_29 phases=1 bus1=9.1 kV=2.402 kVA=1.715 irrad=0.8 Pmpp=1.715
~ temperature=25 PF=1 effcurve=Myeff P-TCurve=MyPvsT
~ Daily=MyShapePV55 TDaily=MyTemp

New PVSystem.PV_9_1_30 phases=1 bus1=9.1 kV=2.402 kVA=1.715 irrad=0.8 Pmpp=1.715
~ temperature=25 PF=1 effcurve=Myeff P-TCurve=MyPvsT
~ Daily=MyShapePV56 TDaily=MyTemp

New PVSystem.PV_9_1_31 phases=1 bus1=9.1 kV=2.402 kVA=1.715 irrad=0.8 Pmpp=1.715
~ temperature=25 PF=1 effcurve=Myeff P-TCurve=MyPvsT
~ Daily=MyShapePV57 TDaily=MyTemp

New PVSystem.PV_9_1_32 phases=1 bus1=9.1 kV=2.402 kVA=1.715 irrad=0.8 Pmpp=1.715
~ temperature=25 PF=1 effcurve=Myeff P-TCurve=MyPvsT
~ Daily=MyShapePV58 TDaily=MyTemp

New PVSystem.PV_9_1_33 phases=1 bus1=9.1 kV=2.402 kVA=1.715 irrad=0.8 Pmpp=1.715
~ temperature=25 PF=1 effcurve=Myeff P-TCurve=MyPvsT
~ Daily=MyShapePV59 TDaily=MyTemp

New PVSystem.PV_9_1_34 phases=1 bus1=9.1 kV=2.402 kVA=1.715 irrad=0.8 Pmpp=1.715
~ temperature=25 PF=1 effcurve=Myeff P-TCurve=MyPvsT
~ Daily=MyShapePV60 TDaily=MyTemp

New PVSystem.PV_9_1_35 phases=1 bus1=9.1 kV=2.402 kVA=1.715 irrad=0.8 Pmpp=1.715
~ temperature=25 PF=1 effcurve=Myeff P-TCurve=MyPvsT
~ Daily=MyShapePV61 TDaily=MyTemp

New PVSystem.PV_10_1_1 phases=1 bus1=10.1 kV=2.402 kVA=0.909 irrad=0.8 Pmpp=0.909
~ temperature=25 PF=1 effcurve=Myeff P-TCurve=MyPvsT
~ Daily=MyShapePV62 TDaily=MyTemp

New PVSystem.PV_10_1_2 phases=1 bus1=10.1 kV=2.402 kVA=0.909 irrad=0.8 Pmpp=0.909
~ temperature=25 PF=1 effcurve=Myeff P-TCurve=MyPvsT
~ Daily=MyShapePV63 TDaily=MyTemp

New PVSystem.PV_10_1_3 phases=1 bus1=10.1 kV=2.402 kVA=0.909 irrad=0.8 Pmpp=0.909
~ temperature=25 PF=1 effcurve=Myeff P-TCurve=MyPvsT
~ Daily=MyShapePV64 TDaily=MyTemp

New PVSystem.PV_10_1_4 phases=1 bus1=10.1 kV=2.402 kVA=0.909 irrad=0.8 Pmpp=0.909
~ temperature=25 PF=1 effcurve=Myeff P-TCurve=MyPvsT
~ Daily=MyShapePV65 TDaily=MyTemp

New PVSystem.PV_10_1_5 phases=1 bus1=10.1 kV=2.402 kVA=0.909 irrad=0.8 Pmpp=0.909
~ temperature=25 PF=1 effcurve=Myeff P-TCurve=MyPvsT
~ Daily=MyShapePV66 TDaily=MyTemp

New PVSystem.PV_10_1_6 phases=1 bus1=10.1 kV=2.402 kVA=0.909 irrad=0.8 Pmpp=0.909
~ temperature=25 PF=1 effcurve=Myeff P-TCurve=MyPvsT
~ Daily=MyShapePV67 TDaily=MyTemp

New PVSystem.PV_10_1_7 phases=1 bus1=10.1 kV=2.402 kVA=0.909 irrad=0.8 Pmpp=0.909
~ temperature=25 PF=1 effcurve=Myeff P-TCurve=MyPvsT
~ Daily=MyShapePV68 TDaily=MyTemp

New PVSystem.PV_10_1_8 phases=1 bus1=10.1 kV=2.402 kVA=0.909 irrad=0.8 Pmpp=0.909
~ temperature=25 PF=1 effcurve=Myeff P-TCurve=MyPvsT
~ Daily=MyShapePV69 TDaily=MyTemp

New PVSystem.PV_10_1_9 phases=1 bus1=10.1 kV=2.402 kVA=0.909 irrad=0.8 Pmpp=0.909
~ temperature=25 PF=1 effcurve=Myeff P-TCurve=MyPvsT
~ Daily=MyShapePV70 TDaily=MyTemp

New PVSystem.PV_10_1_10 phases=1 bus1=10.1 kV=2.402 kVA=0.909 irrad=0.8 Pmpp=0.909
~ temperature=25 PF=1 effcurve=Myeff P-TCurve=MyPvsT
~ Daily=MyShapePV71 TDaily=MyTemp

New PVSystem.PV_10_1_11 phases=1 bus1=10.1 kV=2.402 kVA=0.909 irrad=0.8 Pmpp=0.909
~ temperature=25 PF=1 effcurve=Myeff P-TCurve=MyPvsT
~ Daily=MyShapePV72 TDaily=MyTemp

New PVSystem.PV_10_1_12 phases=1 bus1=10.1 kV=2.402 kVA=0.909 irrad=0.8 Pmpp=0.909
~ temperature=25 PF=1 effcurve=Myeff P-TCurve=MyPvsT
~ Daily=MyShapePV73 TDaily=MyTemp

New PVSystem.PV_10_1_13 phases=1 bus1=10.1 kV=2.402 kVA=0.909 irrad=0.8 Pmpp=0.909
~ temperature=25 PF=1 effcurve=Myeff P-TCurve=MyPvsT
~ Daily=MyShapePV74 TDaily=MyTemp

New PVSystem.PV_10_1_14 phases=1 bus1=10.1 kV=2.402 kVA=0.909 irrad=0.8 Pmpp=0.909
~ temperature=25 PF=1 effcurve=Myeff P-TCurve=MyPvsT
~ Daily=MyShapePV75 TDaily=MyTemp

New PVSystem.PV_10_1_15 phases=1 bus1=10.1 kV=2.402 kVA=0.909 irrad=0.8 Pmpp=0.909
~ temperature=25 PF=1 effcurve=Myeff P-TCurve=MyPvsT
~ Daily=MyShapePV76 TDaily=MyTemp

New PVSystem.PV_10_1_16 phases=1 bus1=10.1 kV=2.402 kVA=0.909 irrad=0.8 Pmpp=0.909
~ temperature=25 PF=1 effcurve=Myeff P-TCurve=MyPvsT
~ Daily=MyShapePV77 TDaily=MyTemp

New PVSystem.PV_10_1_17 phases=1 bus1=10.1 kV=2.402 kVA=0.909 irrad=0.8 Pmpp=0.909
~ temperature=25 PF=1 effcurve=Myeff P-TCurve=MyPvsT
~ Daily=MyShapePV78 TDaily=MyTemp

New PVSystem.PV_10_1_18 phases=1 bus1=10.1 kV=2.402 kVA=0.909 irrad=0.8 Pmpp=0.909
~ temperature=25 PF=1 effcurve=Myeff P-TCurve=MyPvsT
~ Daily=MyShapePV79 TDaily=MyTemp

New PVSystem.PV_10_1_19 phases=1 bus1=10.1 kV=2.402 kVA=0.909 irrad=0.8 Pmpp=0.909
~ temperature=25 PF=1 effcurve=Myeff P-TCurve=MyPvsT
~ Daily=MyShapePV80 TDaily=MyTemp

New PVSystem.PV_10_1_20 phases=1 bus1=10.1 kV=2.402 kVA=0.909 irrad=0.8 Pmpp=0.909
~ temperature=25 PF=1 effcurve=Myeff P-TCurve=MyPvsT
~ Daily=MyShapePV81 TDaily=MyTemp

New PVSystem.PV_10_1_21 phases=1 bus1=10.1 kV=2.402 kVA=0.909 irrad=0.8 Pmpp=0.909
~ temperature=25 PF=1 effcurve=Myeff P-TCurve=MyPvsT
~ Daily=MyShapePV82 TDaily=MyTemp

New PVSystem.PV_10_1_22 phases=1 bus1=10.1 kV=2.402 kVA=0.909 irrad=0.8 Pmpp=0.909
~ temperature=25 PF=1 effcurve=Myeff P-TCurve=MyPvsT
~ Daily=MyShapePV83 TDaily=MyTemp

New PVSystem.PV_10_1_23 phases=1 bus1=10.1 kV=2.402 kVA=0.909 irrad=0.8 Pmpp=0.909
~ temperature=25 PF=1 effcurve=Myeff P-TCurve=MyPvsT
~ Daily=MyShapePV84 TDaily=MyTemp

New PVSystem.PV_10_1_24 phases=1 bus1=10.1 kV=2.402 kVA=0.909 irrad=0.8 Pmpp=0.909
~ temperature=25 PF=1 effcurve=Myeff P-TCurve=MyPvsT
~ Daily=MyShapePV85 TDaily=MyTemp

New PVSystem.PV_10_1_25 phases=1 bus1=10.1 kV=2.402 kVA=0.909 irrad=0.8 Pmpp=0.909
~ temperature=25 PF=1 effcurve=Myeff P-TCurve=MyPvsT
~ Daily=MyShapePV86 TDaily=MyTemp

New PVSystem.PV_10_1_26 phases=1 bus1=10.1 kV=2.402 kVA=0.909 irrad=0.8 Pmpp=0.909
~ temperature=25 PF=1 effcurve=Myeff P-TCurve=MyPvsT
~ Daily=MyShapePV87 TDaily=MyTemp

New PVSystem.PV_10_1_27 phases=1 bus1=10.1 kV=2.402 kVA=0.909 irrad=0.8 Pmpp=0.909
~ temperature=25 PF=1 effcurve=Myeff P-TCurve=MyPvsT
~ Daily=MyShapePV88 TDaily=MyTemp

New PVSystem.PV_10_1_28 phases=1 bus1=10.1 kV=2.402 kVA=0.909 irrad=0.8 Pmpp=0.909
~ temperature=25 PF=1 effcurve=Myeff P-TCurve=MyPvsT
~ Daily=MyShapePV89 TDaily=MyTemp

New PVSystem.PV_10_1_29 phases=1 bus1=10.1 kV=2.402 kVA=0.909 irrad=0.8 Pmpp=0.909
~ temperature=25 PF=1 effcurve=Myeff P-TCurve=MyPvsT
~ Daily=MyShapePV90 TDaily=MyTemp

New PVSystem.PV_10_1_30 phases=1 bus1=10.1 kV=2.402 kVA=0.909 irrad=0.8 Pmpp=0.909
~ temperature=25 PF=1 effcurve=Myeff P-TCurve=MyPvsT
~ Daily=MyShapePV1 TDaily=MyTemp

New PVSystem.PV_10_1_31 phases=1 bus1=10.1 kV=2.402 kVA=0.909 irrad=0.8 Pmpp=0.909
~ temperature=25 PF=1 effcurve=Myeff P-TCurve=MyPvsT
~ Daily=MyShapePV2 TDaily=MyTemp

New PVSystem.PV_10_1_32 phases=1 bus1=10.1 kV=2.402 kVA=0.909 irrad=0.8 Pmpp=0.909
~ temperature=25 PF=1 effcurve=Myeff P-TCurve=MyPvsT
~ Daily=MyShapePV3 TDaily=MyTemp

New PVSystem.PV_10_1_33 phases=1 bus1=10.1 kV=2.402 kVA=0.909 irrad=0.8 Pmpp=0.909
~ temperature=25 PF=1 effcurve=Myeff P-TCurve=MyPvsT
~ Daily=MyShapePV4 TDaily=MyTemp

New PVSystem.PV_11_1_1 phases=1 bus1=11.1 kV=2.402 kVA=1.621 irrad=0.8 Pmpp=1.621
~ temperature=25 PF=1 effcurve=Myeff P-TCurve=MyPvsT
~ Daily=MyShapePV5 TDaily=MyTemp

New PVSystem.PV_11_1_2 phases=1 bus1=11.1 kV=2.402 kVA=1.621 irrad=0.8 Pmpp=1.621
~ temperature=25 PF=1 effcurve=Myeff P-TCurve=MyPvsT
~ Daily=MyShapePV6 TDaily=MyTemp

New PVSystem.PV_11_1_3 phases=1 bus1=11.1 kV=2.402 kVA=1.621 irrad=0.8 Pmpp=1.621
~ temperature=25 PF=1 effcurve=Myeff P-TCurve=MyPvsT
~ Daily=MyShapePV7 TDaily=MyTemp

New PVSystem.PV_11_1_4 phases=1 bus1=11.1 kV=2.402 kVA=1.621 irrad=0.8 Pmpp=1.621
~ temperature=25 PF=1 effcurve=Myeff P-TCurve=MyPvsT
~ Daily=MyShapePV8 TDaily=MyTemp

New PVSystem.PV_11_1_5 phases=1 bus1=11.1 kV=2.402 kVA=1.621 irrad=0.8 Pmpp=1.621
~ temperature=25 PF=1 effcurve=Myeff P-TCurve=MyPvsT
~ Daily=MyShapePV9 TDaily=MyTemp

New PVSystem.PV_11_1_6 phases=1 bus1=11.1 kV=2.402 kVA=1.621 irrad=0.8 Pmpp=1.621
~ temperature=25 PF=1 effcurve=Myeff P-TCurve=MyPvsT
~ Daily=MyShapePV10 TDaily=MyTemp

New PVSystem.PV_11_1_7 phases=1 bus1=11.1 kV=2.402 kVA=1.621 irrad=0.8 Pmpp=1.621
~ temperature=25 PF=1 effcurve=Myeff P-TCurve=MyPvsT
~ Daily=MyShapePV11 TDaily=MyTemp

New PVSystem.PV_11_1_8 phases=1 bus1=11.1 kV=2.402 kVA=1.621 irrad=0.8 Pmpp=1.621
~ temperature=25 PF=1 effcurve=Myeff P-TCurve=MyPvsT
~ Daily=MyShapePV12 TDaily=MyTemp

New PVSystem.PV_11_1_9 phases=1 bus1=11.1 kV=2.402 kVA=1.621 irrad=0.8 Pmpp=1.621
~ temperature=25 PF=1 effcurve=Myeff P-TCurve=MyPvsT
~ Daily=MyShapePV13 TDaily=MyTemp

New PVSystem.PV_11_1_10 phases=1 bus1=11.1 kV=2.402 kVA=1.621 irrad=0.8 Pmpp=1.621
~ temperature=25 PF=1 effcurve=Myeff P-TCurve=MyPvsT
~ Daily=MyShapePV14 TDaily=MyTemp

New PVSystem.PV_11_1_11 phases=1 bus1=11.1 kV=2.402 kVA=1.621 irrad=0.8 Pmpp=1.621
~ temperature=25 PF=1 effcurve=Myeff P-TCurve=MyPvsT
~ Daily=MyShapePV15 TDaily=MyTemp

New PVSystem.PV_11_1_12 phases=1 bus1=11.1 kV=2.402 kVA=1.621 irrad=0.8 Pmpp=1.621
~ temperature=25 PF=1 effcurve=Myeff P-TCurve=MyPvsT
~ Daily=MyShapePV16 TDaily=MyTemp

New PVSystem.PV_11_1_13 phases=1 bus1=11.1 kV=2.402 kVA=1.621 irrad=0.8 Pmpp=1.621
~ temperature=25 PF=1 effcurve=Myeff P-TCurve=MyPvsT
~ Daily=MyShapePV17 TDaily=MyTemp

New PVSystem.PV_11_1_14 phases=1 bus1=11.1 kV=2.402 kVA=1.621 irrad=0.8 Pmpp=1.621
~ temperature=25 PF=1 effcurve=Myeff P-TCurve=MyPvsT
~ Daily=MyShapePV18 TDaily=MyTemp

New PVSystem.PV_11_1_15 phases=1 bus1=11.1 kV=2.402 kVA=1.621 irrad=0.8 Pmpp=1.621
~ temperature=25 PF=1 effcurve=Myeff P-TCurve=MyPvsT
~ Daily=MyShapePV19 TDaily=MyTemp

New PVSystem.PV_11_1_16 phases=1 bus1=11.1 kV=2.402 kVA=1.621 irrad=0.8 Pmpp=1.621
~ temperature=25 PF=1 effcurve=Myeff P-TCurve=MyPvsT
~ Daily=MyShapePV20 TDaily=MyTemp

New PVSystem.PV_11_1_17 phases=1 bus1=11.1 kV=2.402 kVA=1.621 irrad=0.8 Pmpp=1.621
~ temperature=25 PF=1 effcurve=Myeff P-TCurve=MyPvsT
~ Daily=MyShapePV21 TDaily=MyTemp

New PVSystem.PV_11_1_18 phases=1 bus1=11.1 kV=2.402 kVA=1.621 irrad=0.8 Pmpp=1.621
~ temperature=25 PF=1 effcurve=Myeff P-TCurve=MyPvsT
~ Daily=MyShapePV22 TDaily=MyTemp

New PVSystem.PV_11_1_19 phases=1 bus1=11.1 kV=2.402 kVA=1.621 irrad=0.8 Pmpp=1.621
~ temperature=25 PF=1 effcurve=Myeff P-TCurve=MyPvsT
~ Daily=MyShapePV23 TDaily=MyTemp

New PVSystem.PV_11_1_20 phases=1 bus1=11.1 kV=2.402 kVA=1.621 irrad=0.8 Pmpp=1.621
~ temperature=25 PF=1 effcurve=Myeff P-TCurve=MyPvsT
~ Daily=MyShapePV24 TDaily=MyTemp

New PVSystem.PV_11_1_21 phases=1 bus1=11.1 kV=2.402 kVA=1.621 irrad=0.8 Pmpp=1.621
~ temperature=25 PF=1 effcurve=Myeff P-TCurve=MyPvsT
~ Daily=MyShapePV25 TDaily=MyTemp

New PVSystem.PV_11_1_22 phases=1 bus1=11.1 kV=2.402 kVA=1.621 irrad=0.8 Pmpp=1.621
~ temperature=25 PF=1 effcurve=Myeff P-TCurve=MyPvsT
~ Daily=MyShapePV26 TDaily=MyTemp

New PVSystem.PV_11_1_23 phases=1 bus1=11.1 kV=2.402 kVA=1.621 irrad=0.8 Pmpp=1.621
~ temperature=25 PF=1 effcurve=Myeff P-TCurve=MyPvsT
~ Daily=MyShapePV27 TDaily=MyTemp

New PVSystem.PV_11_1_24 phases=1 bus1=11.1 kV=2.402 kVA=1.621 irrad=0.8 Pmpp=1.621
~ temperature=25 PF=1 effcurve=Myeff P-TCurve=MyPvsT
~ Daily=MyShapePV28 TDaily=MyTemp

New PVSystem.PV_11_1_25 phases=1 bus1=11.1 kV=2.402 kVA=1.621 irrad=0.8 Pmpp=1.621
~ temperature=25 PF=1 effcurve=Myeff P-TCurve=MyPvsT
~ Daily=MyShapePV29 TDaily=MyTemp

New PVSystem.PV_11_1_26 phases=1 bus1=11.1 kV=2.402 kVA=1.621 irrad=0.8 Pmpp=1.621
~ temperature=25 PF=1 effcurve=Myeff P-TCurve=MyPvsT
~ Daily=MyShapePV30 TDaily=MyTemp

New PVSystem.PV_11_1_27 phases=1 bus1=11.1 kV=2.402 kVA=1.621 irrad=0.8 Pmpp=1.621
~ temperature=25 PF=1 effcurve=Myeff P-TCurve=MyPvsT
~ Daily=MyShapePV31 TDaily=MyTemp

New PVSystem.PV_11_1_28 phases=1 bus1=11.1 kV=2.402 kVA=1.621 irrad=0.8 Pmpp=1.621
~ temperature=25 PF=1 effcurve=Myeff P-TCurve=MyPvsT
~ Daily=MyShapePV32 TDaily=MyTemp

New PVSystem.PV_11_1_29 phases=1 bus1=11.1 kV=2.402 kVA=1.621 irrad=0.8 Pmpp=1.621
~ temperature=25 PF=1 effcurve=Myeff P-TCurve=MyPvsT
~ Daily=MyShapePV33 TDaily=MyTemp

New PVSystem.PV_11_1_30 phases=1 bus1=11.1 kV=2.402 kVA=1.621 irrad=0.8 Pmpp=1.621
~ temperature=25 PF=1 effcurve=Myeff P-TCurve=MyPvsT
~ Daily=MyShapePV34 TDaily=MyTemp

New PVSystem.PV_11_1_31 phases=1 bus1=11.1 kV=2.402 kVA=1.621 irrad=0.8 Pmpp=1.621
~ temperature=25 PF=1 effcurve=Myeff P-TCurve=MyPvsT
~ Daily=MyShapePV35 TDaily=MyTemp

New PVSystem.PV_11_1_32 phases=1 bus1=11.1 kV=2.402 kVA=1.621 irrad=0.8 Pmpp=1.621
~ temperature=25 PF=1 effcurve=Myeff P-TCurve=MyPvsT
~ Daily=MyShapePV36 TDaily=MyTemp

New PVSystem.PV_11_1_33 phases=1 bus1=11.1 kV=2.402 kVA=1.621 irrad=0.8 Pmpp=1.621
~ temperature=25 PF=1 effcurve=Myeff P-TCurve=MyPvsT
~ Daily=MyShapePV37 TDaily=MyTemp

New PVSystem.PV_11_1_34 phases=1 bus1=11.1 kV=2.402 kVA=1.621 irrad=0.8 Pmpp=1.621
~ temperature=25 PF=1 effcurve=Myeff P-TCurve=MyPvsT
~ Daily=MyShapePV38 TDaily=MyTemp

New PVSystem.PV_11_1_35 phases=1 bus1=11.1 kV=2.402 kVA=1.621 irrad=0.8 Pmpp=1.621
~ temperature=25 PF=1 effcurve=Myeff P-TCurve=MyPvsT
~ Daily=MyShapePV39 TDaily=MyTemp

New PVSystem.PV_11_1_36 phases=1 bus1=11.1 kV=2.402 kVA=1.621 irrad=0.8 Pmpp=1.621
~ temperature=25 PF=1 effcurve=Myeff P-TCurve=MyPvsT
~ Daily=MyShapePV40 TDaily=MyTemp

New PVSystem.PV_11_1_37 phases=1 bus1=11.1 kV=2.402 kVA=1.621 irrad=0.8 Pmpp=1.621
~ temperature=25 PF=1 effcurve=Myeff P-TCurve=MyPvsT
~ Daily=MyShapePV41 TDaily=MyTemp

New PVSystem.PV_12_2_1 phases=1 bus1=12.2 kV=2.402 kVA=0.770 irrad=0.8 Pmpp=0.770
~ temperature=25 PF=1 effcurve=Myeff P-TCurve=MyPvsT
~ Daily=MyShapePV42 TDaily=MyTemp

New PVSystem.PV_12_2_2 phases=1 bus1=12.2 kV=2.402 kVA=0.770 irrad=0.8 Pmpp=0.770
~ temperature=25 PF=1 effcurve=Myeff P-TCurve=MyPvsT
~ Daily=MyShapePV43 TDaily=MyTemp

New PVSystem.PV_12_2_3 phases=1 bus1=12.2 kV=2.402 kVA=0.770 irrad=0.8 Pmpp=0.770
~ temperature=25 PF=1 effcurve=Myeff P-TCurve=MyPvsT
~ Daily=MyShapePV44 TDaily=MyTemp

New PVSystem.PV_12_2_4 phases=1 bus1=12.2 kV=2.402 kVA=0.770 irrad=0.8 Pmpp=0.770
~ temperature=25 PF=1 effcurve=Myeff P-TCurve=MyPvsT
~ Daily=MyShapePV45 TDaily=MyTemp

New PVSystem.PV_12_2_5 phases=1 bus1=12.2 kV=2.402 kVA=0.770 irrad=0.8 Pmpp=0.770
~ temperature=25 PF=1 effcurve=Myeff P-TCurve=MyPvsT
~ Daily=MyShapePV46 TDaily=MyTemp

New PVSystem.PV_12_2_6 phases=1 bus1=12.2 kV=2.402 kVA=0.770 irrad=0.8 Pmpp=0.770
~ temperature=25 PF=1 effcurve=Myeff P-TCurve=MyPvsT
~ Daily=MyShapePV47 TDaily=MyTemp

New PVSystem.PV_12_2_7 phases=1 bus1=12.2 kV=2.402 kVA=0.770 irrad=0.8 Pmpp=0.770
~ temperature=25 PF=1 effcurve=Myeff P-TCurve=MyPvsT
~ Daily=MyShapePV48 TDaily=MyTemp

...